tests/data/short_circuit/three_phase/asym_sc_output_batch.json
[
  {
    "node":
      [
        {"id": 0, "u_pu": [0.8339083271798211, 0.833908327179821, 0.833908327179821], "u_angle": [0.016596157818315978, -2.07779894457488, 2.1109912602115113], "u": [72218.57957651104, 72218.57957651104, 72218.57957651104]},
        {"id": 1, "u_pu": [0.0, 0.0, 0.0], "u_angle": [0.0, 0.0, 0.0], "u": [0.0, 0.0, 0.0]},
        {"id": 2, "u_pu": [0.9704435987128411, 0.970443598712841, 0.970443598712841], "u_angle": [-0.5299029914948589, -2.6242980938880547, 1.5644921108983365], "u": [5602.85872950208, 5602.85872950208, 5602.85872950208]},
        {"id": 3, "u_pu": [0.9704473303823548, 0.9704473303823548, 0.9704473303823548], "u_angle": [-0.5299042230039145, -2.6242993253971103, 1.5644908793892809], "u": [5602.880274306062, 5602.880274306062, 5602.880274306062]}
      ],
    "transformer":
      [
        {"id": 6, "i_from": [1481.406760543816, 1481.406760543816, 1481.406760543816], "i_from_angle": [-1.5542001689765805, 2.63459003580981, 0.5401949334166146], "i_to": [19258.287887069615, 19258.287887069615, 19258.287887069615], "i_to_angle": [2.1109912602115113, 0.01659615781831535, -2.07779894457488]}
      ],
    "line":
      [
        {"id": 7, "i_from": [34875.11674014596, 34875.11674014595, 34875.11674014595], "i_from_angle": [1.3508334152423649, -0.7435616871508312, -2.8379567895440263], "i_to": [34874.58031811108, 34874.58031811108, 34874.58031811108], "i_to_angle": [-1.790754312254378, 2.3980358925320124, 0.30364079013881706]},
        {"id": 8, "i_from": [0.5632618773187452, 0.5632618773187452, 0.5632618773187452], "i_from_angle": [1.0408927195645348, -1.0535023828286612, 3.1352878219577303], "i_to": [1.467690763929347e-11, 1.467690763929347e-11, 1.467690763929347e-11], "i_to_angle": [-1.1071487177940904, 3.0816414869923, 0.9872463845991047]}
      ],
    "fault":
      [
        {"id": 10, "i": [53623.382809574345, 53623.382809574345, 53623.38280957434], "i_angle": [1.248979804773232, -0.845415297619964, -2.9398104000131595]}
      ],
    "shunt":
      [
        {"id": 9, "i": [0.0, 0.0, 0.0], "i_angle": [0.0, 0.0, 0.0]}
      ],
    "source":
      [
        {"id": 4, "i": [1283.8858591379758, 1283.8858591379756, 1283.8858591379758], "i_angle": [1.5873924846132126, -0.5070026177799835, -2.601397720173179]},
        {"id": 5, "i": [34874.04389599704, 34874.04389599704, 34874.04389599704], "i_angle": [1.3508432675989517, -0.7435518347942442, -2.8379469371874397]}
      ]
  }
,
  {
    "node":
      [
        {"id": 0, "u_pu": [0.8339083271798211, 0.833908327179821, 0.833908327179821], "u_angle": [0.016596157818315978, -2.07779894457488, 2.1109912602115113], "u": [72218.57957651104, 72218.57957651104, 72218.57957651104]},
        {"id": 1, "u_pu": [0.0, 0.0, 0.0], "u_angle": [0.0, 0.0, 0.0], "u": [0.0, 0.0, 0.0]},
        {"id": 2, "u_pu": [0.9704435987128411, 0.970443598712841, 0.970443598712841], "u_angle": [-0.5299029914948589, -2.6242980938880547, 1.5644921108983365], "u": [5602.85872950208, 5602.85872950208, 5602.85872950208]},
        {"id": 3, "u_pu": [0.9704473303823548, 0.9704473303823548, 0.9704473303823548], "u_angle": [-0.5299042230039145, -2.6242993253971103, 1.5644908793892809], "u": [5602.880274306062, 5602.880274306062, 5602.880274306062]}
      ],
    "transformer":
      [
        {"id": 6, "i_from": [1481.406760543816, 1481.406760543816, 1481.406760543816], "i_from_angle": [-1.5542001689765805, 2.63459003580981, 0.5401949334166146], "i_to": [19258.287887069615, 19258.287887069615, 19258.287887069615], "i_to_angle": [2.1109912602115113, 0.01659615781831535, -2.07779894457488]}
      ],
    "line":
      [
        {"id": 7, "i_from": [34875.11674014596, 34875.11674014595, 34875.11674014595], "i_from_angle": [1.3508334152423649, -0.7435616871508312, -2.8379567895440263], "i_to": [34874.58031811108, 34874.58031811108, 34874.58031811108], "i_to_angle": [-1.790754312254378, 2.3980358925320124, 0.30364079013881706]},
        {"id": 8, "i_from": [0.5632618773187452, 0.5632618773187452, 0.5632618773187452], "i_from_angle": [1.0408927195645348, -1.0535023828286612, 3.1352878219577303], "i_to": [1.467690763929347e-11, 1.467690763929347e-11, 1.467690763929347e-11], "i_to_angle": [-1.1071487177940904, 3.0816414869923, 0.9872463845991047]}
      ],
    "fault":
      [
        {"id": 10, "i": [53623.382809574345, 53623.382809574345, 53623.38280957434], "i_angle": [1.248979804773232, -0.845415297619964, -2.9398104000131595]}
      ],
    "source":
      [
        {"id": 4, "i": [1283.8858591379758, 1283.8858591379756, 1283.8858591379758], "i_angle": [1.5873924846132126, -0.5070026177799835, -2.601397720173179]},
        {"id": 5, "i": [34874.04389599704, 34874.04389599704, 34874.04389599704], "i_angle": [1.3508432675989517, -0.7435518347942442, -2.8379469371874397]}
      ]
  }
,
  {
    "node":
      [
        {"id": 0, "u_pu": [0.8339083271798211, 0.833908327179821, 0.833908327179821], "u_angle": [0.01659615781831596, -2.07779894457488, 2.1109912602115113], "u": [72218.57957651104, 72218.57957651104, 72218.57957651104]},
        {"id": 1, "u_pu": [5.551115123125783e-17, 5.551115123125782e-17, 5.551115123125782e-17], "u_angle": [0.0, -2.0943951023931957, 2.0943951023931953], "u": [3.204937810639273e-13, 3.2049378106392727e-13, 3.2049378106392727e-13]},
        {"id": 2, "u_pu": [1.734723475976807e-18, 1.7347234759768069e-18, 1.7347234759768069e-18], "u_angle": [3.141592653589793, 1.0471975511965974, -1.047197551196598], "u": [1.0015430658247729e-14, 1.0015430658247727e-14, 1.0015430658247727e-14]},
        {"id": 3, "u_pu": [0.0, 0.0, 0.0], "u_angle": [0.0, 0.0, 0.0], "u": [0.0, 0.0, 0.0]}
      ],
    "transformer":
      [
        {"id": 6, "i_from": [1481.406760543816, 1481.406760543816, 1481.4067605438158], "i_from_angle": [-1.5542001689765805, 2.63459003580981, 0.5401949334166147], "i_to": [19258.287887069615, 19258.287887069615, 19258.287887069615], "i_to_angle": [2.1109912602115113, 0.01659615781831535, -2.07779894457488]}
      ],
    "line":
      [
        {"id": 7, "i_from": [2.0572311348636295e-12, 2.057231134863629e-12, 2.0572311348636295e-12], "i_from_angle": [-1.2608514700372928, 2.9279387347490977, 0.8335436323559025], "i_to": [2.057260860301402e-12, 2.057260860301402e-12, 2.057260860301402e-12], "i_to_angle": [1.8807365560105442, -0.2136585463826516, -2.308053648775847]},
        {"id": 8, "i_from": [1.246820550533671e-13, 1.246820550533671e-13, 1.246820550533671e-13], "i_from_angle": [1.8807376382462795, -0.2136574641469164, -2.3080525665401117], "i_to": [1.2468253449619547e-13, 1.2468253449619547e-13, 1.2468253449619544e-13], "i_to_angle": [-1.2608562468525695, 2.927933957933821, 0.8335388555406259]}
      ],
    "fault":
      [
        {"id": 10, "i": [19258.287887069615, 19258.28788706961, 19258.28788706961], "i_angle": [1.0637937090149137, -1.030601393378282, -3.1249964957714775]}
      ],
    "shunt":
      [
        {"id": 9, "i": [0.0, 0.0, 0.0], "i_angle": [0.0, 0.0, 0.0]}
      ],
    "source":
      [
        {"id": 4, "i": [1283.8858591379758, 1283.8858591379758, 1283.8858591379756], "i_angle": [1.5873924846132126, -0.5070026177799833, -2.6013977201731784]}
      ]
  }
,
  {
    "node":
      [
        {"id": 0, "u_pu": [0.8339083271798211, 0.833908327179821, 0.833908327179821], "u_angle": [0.01659615781831596, -2.07779894457488, 2.1109912602115113], "u": [72218.57957651104, 72218.57957651104, 72218.57957651104]},
        {"id": 1, "u_pu": [5.551115123125783e-17, 5.551115123125782e-17, 5.551115123125782e-17], "u_angle": [0.0, -2.0943951023931957, 2.0943951023931953], "u": [3.204937810639273e-13, 3.2049378106392727e-13, 3.2049378106392727e-13]},
        {"id": 2, "u_pu": [1.734723475976807e-18, 1.7347234759768069e-18, 1.7347234759768069e-18], "u_angle": [3.141592653589793, 1.0471975511965974, -1.047197551196598], "u": [1.0015430658247729e-14, 1.0015430658247727e-14, 1.0015430658247727e-14]},
        {"id": 3, "u_pu": [0.0, 0.0, 0.0], "u_angle": [0.0, 0.0, 0.0], "u": [0.0, 0.0, 0.0]}
      ],
    "transformer":
      [
        {"id": 6, "i_from": [1481.406760543816, 1481.406760543816, 1481.4067605438158], "i_from_angle": [-1.5542001689765805, 2.63459003580981, 0.5401949334166147], "i_to": [19258.287887069615, 19258.287887069615, 19258.287887069615], "i_to_angle": [2.1109912602115113, 0.01659615781831535, -2.07779894457488]}
      ],
    "line":
      [
        {"id": 7, "i_from": [2.0572311348636295e-12, 2.057231134863629e-12, 2.0572311348636295e-12], "i_from_angle": [-1.2608514700372928, 2.9279387347490977, 0.8335436323559025], "i_to": [2.057260860301402e-12, 2.057260860301402e-12, 2.057260860301402e-12], "i_to_angle": [1.8807365560105442, -0.2136585463826516, -2.308053648775847]},
        {"id": 8, "i_from": [1.246820550533671e-13, 1.246820550533671e-13, 1.246820550533671e-13], "i_from_angle": [1.8807376382462795, -0.2136574641469164, -2.3080525665401117], "i_to": [1.2468253449619547e-13, 1.2468253449619547e-13, 1.2468253449619544e-13], "i_to_angle": [-1.2608562468525695, 2.927933957933821, 0.8335388555406259]}
      ],
    "fault":
      [
        {"id": 10, "i": [19258.287887069615, 19258.28788706961, 19258.28788706961], "i_angle": [1.0637937090149137, -1.030601393378282, -3.1249964957714775]}
      ],
    "source":
      [
        {"id": 4, "i": [1283.8858591379758, 1283.8858591379758, 1283.8858591379756], "i_angle": [1.5873924846132126, -0.5070026177799833, -2.6013977201731784]}
      ]
  }
,
  {
    "node":
      [
        {"id": 0, "u_pu": [0.8339083271798211, 0.833908327179821, 0.833908327179821], "u_angle": [0.016596157818315978, -2.07779894457488, 2.1109912602115113], "u": [72218.57957651104, 72218.57957651104, 72218.57957651104]},
        {"id": 1, "u_pu": [0.0, 0.0, 0.0], "u_angle": [0.0, 0.0, 0.0], "u": [0.0, 0.0, 0.0]},
        {"id": 2, "u_pu": [0.9704435987128411, 0.970443598712841, 0.970443598712841], "u_angle": [-0.5299029914948589, -2.6242980938880547, 1.5644921108983365], "u": [5602.85872950208, 5602.85872950208, 5602.85872950208]},
        {"id": 3, "u_pu": [0.9704473303823548, 0.9704473303823548, 0.9704473303823548], "u_angle": [-0.5299042230039145, -2.6242993253971103, 1.5644908793892809], "u": [5602.880274306062, 5602.880274306062, 5602.880274306062]}
      ],
    "transformer":
      [
        {"id": 6, "i_from": [1481.406760543816, 1481.406760543816, 1481.406760543816], "i_from_angle": [-1.5542001689765805, 2.63459003580981, 0.5401949334166146], "i_to": [19258.287887069615, 19258.287887069615, 19258.287887069615], "i_to_angle": [2.1109912602115113, 0.01659615781831535, -2.07779894457488]}
      ],
    "line":
      [
        {"id": 7, "i_from": [34875.11674014596, 34875.11674014595, 34875.11674014595], "i_from_angle": [1.3508334152423649, -0.7435616871508312, -2.8379567895440263], "i_to": [34874.58031811108, 34874.58031811108, 34874.58031811108], "i_to_angle": [-1.790754312254378, 2.3980358925320124, 0.30364079013881706]},
        {"id": 8, "i_from": [0.5632618773187452, 0.5632618773187452, 0.5632618773187452], "i_from_angle": [1.0408927195645348, -1.0535023828286612, 3.1352878219577303], "i_to": [1.467690763929347e-11, 1.467690763929347e-11, 1.467690763929347e-11], "i_to_angle": [-1.1071487177940904, 3.0816414869923, 0.9872463845991047]}
      ],
    "fault":
      [
        {"id": 10, "i": [53623.382809574345, 53623.382809574345, 53623.38280957434], "i_angle": [1.248979804773232, -0.845415297619964, -2.9398104000131595]}
      ],
    "shunt":
      [
        {"id": 9, "i": [0.0, 0.0, 0.0], "i_angle": [0.0, 0.0, 0.0]}
      ],
    "source":
      [
        {"id": 4, "i": [1283.8858591379758, 1283.8858591379756, 1283.8858591379758], "i_angle": [1.5873924846132126, -0.5070026177799835, -2.601397720173179]},
        {"id": 5, "i": [34874.04389599704, 34874.04389599704, 34874.04389599704], "i_angle": [1.3508432675989517, -0.7435518347942442, -2.8379469371874397]}
      ]
  }
,
  {
    "node":
      [
        {"id": 0, "u_pu": [0.8339083271798211, 0.833908327179821, 0.833908327179821], "u_angle": [0.016596157818315978, -2.07779894457488, 2.1109912602115113], "u": [72218.57957651104, 72218.57957651104, 72218.57957651104]},
        {"id": 1, "u_pu": [0.0, 0.0, 0.0], "u_angle": [0.0, 0.0, 0.0], "u": [0.0, 0.0, 0.0]},
        {"id": 2, "u_pu": [0.9704435987128411, 0.970443598712841, 0.970443598712841], "u_angle": [-0.5299029914948589, -2.6242980938880547, 1.5644921108983365], "u": [5602.85872950208, 5602.85872950208, 5602.85872950208]},
        {"id": 3, "u_pu": [0.9704473303823548, 0.9704473303823548, 0.9704473303823548], "u_angle": [-0.5299042230039145, -2.6242993253971103, 1.5644908793892809], "u": [5602.880274306062, 5602.880274306062, 5602.880274306062]}
      ],
    "transformer":
      [
        {"id": 6, "i_from": [1481.406760543816, 1481.406760543816, 1481.406760543816], "i_from_angle": [-1.5542001689765805, 2.63459003580981, 0.5401949334166146], "i_to": [19258.287887069615, 19258.287887069615, 19258.287887069615], "i_to_angle": [2.1109912602115113, 0.01659615781831535, -2.07779894457488]}
      ],
    "line":
      [
        {"id": 7, "i_from": [34875.11674014596, 34875.11674014595, 34875.11674014595], "i_from_angle": [1.3508334152423649, -0.7435616871508312, -2.8379567895440263], "i_to": [34874.58031811108, 34874.58031811108, 34874.58031811108], "i_to_angle": [-1.790754312254378, 2.3980358925320124, 0.30364079013881706]},
        {"id": 8, "i_from": [0.5632618773187452, 0.5632618773187452, 0.5632618773187452], "i_from_angle": [1.0408927195645348, -1.0535023828286612, 3.1352878219577303], "i_to": [1.467690763929347e-11, 1.467690763929347e-11, 1.467690763929347e-11], "i_to_angle": [-1.1071487177940904, 3.0816414869923, 0.9872463845991047]}
      ],
    "fault":
      [
        {"id": 10, "i": [53623.382809574345, 53623.382809574345, 53623.38280957434], "i_angle": [1.248979804773232, -0.845415297619964, -2.9398104000131595]}
      ],
    "source":
      [
        {"id": 4, "i": [1283.8858591379758, 1283.8858591379756, 1283.8858591379758], "i_angle": [1.5873924846132126, -0.5070026177799835, -2.601397720173179]},
        {"id": 5, "i": [34874.04389599704, 34874.04389599704, 34874.04389599704], "i_angle": [1.3508432675989517, -0.7435518347942442, -2.8379469371874397]}
      ]
  }
,
  {
    "node":
      [
        {"id": 0, "u_pu": [0.8339083271798211, 0.833908327179821, 0.833908327179821], "u_angle": [0.01659615781831596, -2.07779894457488, 2.1109912602115113], "u": [72218.57957651104, 72218.57957651104, 72218.57957651104]},
        {"id": 1, "u_pu": [5.551115123125783e-17, 5.551115123125782e-17, 5.551115123125782e-17], "u_angle": [0.0, -2.0943951023931957, 2.0943951023931953], "u": [3.204937810639273e-13, 3.2049378106392727e-13, 3.2049378106392727e-13]},
        {"id": 2, "u_pu": [1.734723475976807e-18, 1.7347234759768069e-18, 1.7347234759768069e-18], "u_angle": [3.141592653589793, 1.0471975511965974, -1.047197551196598], "u": [1.0015430658247729e-14, 1.0015430658247727e-14, 1.0015430658247727e-14]},
        {"id": 3, "u_pu": [0.0, 0.0, 0.0], "u_angle": [0.0, 0.0, 0.0], "u": [0.0, 0.0, 0.0]}
      ],
    "transformer":
      [
        {"id": 6, "i_from": [1481.406760543816, 1481.406760543816, 1481.4067605438158], "i_from_angle": [-1.5542001689765805, 2.63459003580981, 0.5401949334166147], "i_to": [19258.287887069615, 19258.287887069615, 19258.287887069615], "i_to_angle": [2.1109912602115113, 0.01659615781831535, -2.07779894457488]}
      ],
    "line":
      [
        {"id": 7, "i_from": [2.0572311348636295e-12, 2.057231134863629e-12, 2.0572311348636295e-12], "i_from_angle": [-1.2608514700372928, 2.9279387347490977, 0.8335436323559025], "i_to": [2.057260860301402e-12, 2.057260860301402e-12, 2.057260860301402e-12], "i_to_angle": [1.8807365560105442, -0.2136585463826516, -2.308053648775847]},
        {"id": 8, "i_from": [1.246820550533671e-13, 1.246820550533671e-13, 1.246820550533671e-13], "i_from_angle": [1.8807376382462795, -0.2136574641469164, -2.3080525665401117], "i_to": [1.2468253449619547e-13, 1.2468253449619547e-13, 1.2468253449619544e-13], "i_to_angle": [-1.2608562468525695, 2.927933957933821, 0.8335388555406259]}
      ],
    "fault":
      [
        {"id": 10, "i": [19258.287887069615, 19258.28788706961, 19258.28788706961], "i_angle": [1.0637937090149137, -1.030601393378282, -3.1249964957714775]}
      ],
    "shunt":
      [
        {"id": 9, "i": [0.0, 0.0, 0.0], "i_angle": [0.0, 0.0, 0.0]}
      ],
    "source":
      [
        {"id": 4, "i": [1283.8858591379758, 1283.8858591379758, 1283.8858591379756], "i_angle": [1.5873924846132126, -0.5070026177799833, -2.6013977201731784]}
      ]
  }
,
  {
    "node":
      [
        {"id": 0, "u_pu": [0.8339083271798211, 0.833908327179821, 0.833908327179821], "u_angle": [0.01659615781831596, -2.07779894457488, 2.1109912602115113], "u": [72218.57957651104, 72218.57957651104, 72218.57957651104]},
        {"id": 1, "u_pu": [5.551115123125783e-17, 5.551115123125782e-17, 5.551115123125782e-17], "u_angle": [0.0, -2.0943951023931957, 2.0943951023931953], "u": [3.204937810639273e-13, 3.2049378106392727e-13, 3.2049378106392727e-13]},
        {"id": 2, "u_pu": [1.734723475976807e-18, 1.7347234759768069e-18, 1.7347234759768069e-18], "u_angle": [3.141592653589793, 1.0471975511965974, -1.047197551196598], "u": [1.0015430658247729e-14, 1.0015430658247727e-14, 1.0015430658247727e-14]},
        {"id": 3, "u_pu": [0.0, 0.0, 0.0], "u_angle": [0.0, 0.0, 0.0], "u": [0.0, 0.0, 0.0]}
      ],
    "transformer":
      [
        {"id": 6, "i_from": [1481.406760543816, 1481.406760543816, 1481.4067605438158], "i_from_angle": [-1.5542001689765805, 2.63459003580981, 0.5401949334166147], "i_to": [19258.287887069615, 19258.287887069615, 19258.287887069615], "i_to_angle": [2.1109912602115113, 0.01659615781831535, -2.07779894457488]}
      ],
    "line":
      [
        {"id": 7, "i_from": [2.0572311348636295e-12, 2.057231134863629e-12, 2.0572311348636295e-12], "i_from_angle": [-1.2608514700372928, 2.9279387347490977, 0.8335436323559025], "i_to": [2.057260860301402e-12, 2.057260860301402e-12, 2.057260860301402e-12], "i_to_angle": [1.8807365560105442, -0.2136585463826516, -2.308053648775847]},
        {"id": 8, "i_from": [1.246820550533671e-13, 1.246820550533671e-13, 1.246820550533671e-13], "i_from_angle": [1.8807376382462795, -0.2136574641469164, -2.3080525665401117], "i_to": [1.2468253449619547e-13, 1.2468253449619547e-13, 1.2468253449619544e-13], "i_to_angle": [-1.2608562468525695, 2.927933957933821, 0.8335388555406259]}
      ],
    "fault":
      [
        {"id": 10, "i": [19258.287887069615, 19258.28788706961, 19258.28788706961], "i_angle": [1.0637937090149137, -1.030601393378282, -3.1249964957714775]}
      ],
    "source":
      [
        {"id": 4, "i": [1283.8858591379758, 1283.8858591379758, 1283.8858591379756], "i_angle": [1.5873924846132126, -0.5070026177799833, -2.6013977201731784]}
      ]
  }
,
  {
    "node":
      [
        {"id": 0, "u_pu": [0.8339083271798211, 0.833908327179821, 0.833908327179821], "u_angle": [0.016596157818315978, -2.07779894457488, 2.1109912602115113], "u": [72218.57957651104, 72218.57957651104, 72218.57957651104]},
        {"id": 1, "u_pu": [0.0, 0.0, 0.0], "u_angle": [0.0, 0.0, 0.0], "u": [0.0, 0.0, 0.0]},
        {"id": 2, "u_pu": [0.9704435987128411, 0.970443598712841, 0.970443598712841], "u_angle": [-0.5299029914948589, -2.6242980938880547, 1.5644921108983365], "u": [5602.85872950208, 5602.85872950208, 5602.85872950208]},
        {"id": 3, "u_pu": [0.9704473303823548, 0.9704473303823548, 0.9704473303823548], "u_angle": [-0.5299042230039145, -2.6242993253971103, 1.5644908793892809], "u": [5602.880274306062, 5602.880274306062, 5602.880274306062]}
      ],
    "transformer":
      [
        {"id": 6, "i_from": [1481.406760543816, 1481.406760543816, 1481.406760543816], "i_from_angle": [-1.5542001689765805, 2.63459003580981, 0.5401949334166146], "i_to": [19258.287887069615, 19258.287887069615, 19258.287887069615], "i_to_angle": [2.1109912602115113, 0.01659615781831535, -2.07779894457488]}
      ],
    "line":
      [
        {"id": 7, "i_from": [34875.11674014596, 34875.11674014595, 34875.11674014595], "i_from_angle": [1.3508334152423649, -0.7435616871508312, -2.8379567895440263], "i_to": [34874.58031811108, 34874.58031811108, 34874.58031811108], "i_to_angle": [-1.790754312254378, 2.3980358925320124, 0.30364079013881706]},
        {"id": 8, "i_from": [0.5632618773187452, 0.5632618773187452, 0.5632618773187452], "i_from_angle": [1.0408927195645348, -1.0535023828286612, 3.1352878219577303], "i_to": [1.467690763929347e-11, 1.467690763929347e-11, 1.467690763929347e-11], "i_to_angle": [-1.1071487177940904, 3.0816414869923, 0.9872463845991047]}
      ],
    "fault":
      [
        {"id": 10, "i": [53623.382809574345, 53623.382809574345, 53623.38280957434], "i_angle": [1.248979804773232, -0.845415297619964, -2.9398104000131595]}
      ],
    "shunt":
      [
        {"id": 9, "i": [0.0, 0.0, 0.0], "i_angle": [0.0, 0.0, 0.0]}
      ],
    "source":
      [
        {"id": 4, "i": [1283.8858591379758, 1283.8858591379756, 1283.8858591379758], "i_angle": [1.5873924846132126, -0.5070026177799835, -2.601397720173179]},
        {"id": 5, "i": [34874.04389599704, 34874.04389599704, 34874.04389599704], "i_angle": [1.3508432675989517, -0.7435518347942442, -2.8379469371874397]}
      ]
  }
,
  {
    "node":
      [
        {"id": 0, "u_pu": [0.8339083271798211, 0.833908327179821, 0.833908327179821], "u_angle": [0.016596157818315978, -2.07779894457488, 2.1109912602115113], "u": [72218.57957651104, 72218.57957651104, 72218.57957651104]},
        {"id": 1, "u_pu": [0.0, 0.0, 0.0], "u_angle": [0.0, 0.0, 0.0], "u": [0.0, 0.0, 0.0]},
        {"id": 2, "u_pu": [0.9704435987128411, 0.970443598712841, 0.970443598712841], "u_angle": [-0.5299029914948589, -2.6242980938880547, 1.5644921108983365], "u": [5602.85872950208, 5602.85872950208, 5602.85872950208]},
        {"id": 3, "u_pu": [0.9704473303823548, 0.9704473303823548, 0.9704473303823548], "u_angle": [-0.5299042230039145, -2.6242993253971103, 1.5644908793892809], "u": [5602.880274306062, 5602.880274306062, 5602.880274306062]}
      ],
    "transformer":
      [
        {"id": 6, "i_from": [1481.406760543816, 1481.406760543816, 1481.406760543816], "i_from_angle": [-1.5542001689765805, 2.63459003580981, 0.5401949334166146], "i_to": [19258.287887069615, 19258.287887069615, 19258.287887069615], "i_to_angle": [2.1109912602115113, 0.01659615781831535, -2.07779894457488]}
      ],
    "line":
      [
        {"id": 7, "i_from": [34875.11674014596, 34875.11674014595, 34875.11674014595], "i_from_angle": [1.3508334152423649, -0.7435616871508312, -2.8379567895440263], "i_to": [34874.58031811108, 34874.58031811108, 34874.58031811108], "i_to_angle": [-1.790754312254378, 2.3980358925320124, 0.30364079013881706]},
        {"id": 8, "i_from": [0.5632618773187452, 0.5632618773187452, 0.5632618773187452], "i_from_angle": [1.0408927195645348, -1.0535023828286612, 3.1352878219577303], "i_to": [1.467690763929347e-11, 1.467690763929347e-11, 1.467690763929347e-11], "i_to_angle": [-1.1071487177940904, 3.0816414869923, 0.9872463845991047]}
      ],
    "fault":
      [
        {"id": 10, "i": [53623.382809574345, 53623.382809574345, 53623.38280957434], "i_angle": [1.248979804773232, -0.845415297619964, -2.9398104000131595]}
      ],
    "source":
      [
        {"id": 4, "i": [1283.8858591379758, 1283.8858591379756, 1283.8858591379758], "i_angle": [1.5873924846132126, -0.5070026177799835, -2.601397720173179]},
        {"id": 5, "i": [34874.04389599704, 34874.04389599704, 34874.04389599704], "i_angle": [1.3508432675989517, -0.7435518347942442, -2.8379469371874397]}
      ]
  }
,
  {
    "node":
      [
        {"id": 0, "u_pu": [0.8339083271798211, 0.833908327179821, 0.833908327179821], "u_angle": [0.01659615781831596, -2.07779894457488, 2.1109912602115113], "u": [72218.57957651104, 72218.57957651104, 72218.57957651104]},
        {"id": 1, "u_pu": [5.551115123125783e-17, 5.551115123125782e-17, 5.551115123125782e-17], "u_angle": [0.0, -2.0943951023931957, 2.0943951023931953], "u": [3.204937810639273e-13, 3.2049378106392727e-13, 3.2049378106392727e-13]},
        {"id": 2, "u_pu": [1.734723475976807e-18, 1.7347234759768069e-18, 1.7347234759768069e-18], "u_angle": [3.141592653589793, 1.0471975511965974, -1.047197551196598], "u": [1.0015430658247729e-14, 1.0015430658247727e-14, 1.0015430658247727e-14]},
        {"id": 3, "u_pu": [0.0, 0.0, 0.0], "u_angle": [0.0, 0.0, 0.0], "u": [0.0, 0.0, 0.0]}
      ],
    "transformer":
      [
        {"id": 6, "i_from": [1481.406760543816, 1481.406760543816, 1481.4067605438158], "i_from_angle": [-1.5542001689765805, 2.63459003580981, 0.5401949334166147], "i_to": [19258.287887069615, 19258.287887069615, 19258.287887069615], "i_to_angle": [2.1109912602115113, 0.01659615781831535, -2.07779894457488]}
      ],
    "line":
      [
        {"id": 7, "i_from": [2.0572311348636295e-12, 2.057231134863629e-12, 2.0572311348636295e-12], "i_from_angle": [-1.2608514700372928, 2.9279387347490977, 0.8335436323559025], "i_to": [2.057260860301402e-12, 2.057260860301402e-12, 2.057260860301402e-12], "i_to_angle": [1.8807365560105442, -0.2136585463826516, -2.308053648775847]},
        {"id": 8, "i_from": [1.246820550533671e-13, 1.246820550533671e-13, 1.246820550533671e-13], "i_from_angle": [1.8807376382462795, -0.2136574641469164, -2.3080525665401117], "i_to": [1.2468253449619547e-13, 1.2468253449619547e-13, 1.2468253449619544e-13], "i_to_angle": [-1.2608562468525695, 2.927933957933821, 0.8335388555406259]}
      ],
    "fault":
      [
        {"id": 10, "i": [19258.287887069615, 19258.28788706961, 19258.28788706961], "i_angle": [1.0637937090149137, -1.030601393378282, -3.1249964957714775]}
      ],
    "shunt":
      [
        {"id": 9, "i": [0.0, 0.0, 0.0], "i_angle": [0.0, 0.0, 0.0]}
      ],
    "source":
      [
        {"id": 4, "i": [1283.8858591379758, 1283.8858591379758, 1283.8858591379756], "i_angle": [1.5873924846132126, -0.5070026177799833, -2.6013977201731784]}
      ]
  }
,
  {
    "node":
      [
        {"id": 0, "u_pu": [0.8339083271798211, 0.833908327179821, 0.833908327179821], "u_angle": [0.01659615781831596, -2.07779894457488, 2.1109912602115113], "u": [72218.57957651104, 72218.57957651104, 72218.57957651104]},
        {"id": 1, "u_pu": [5.551115123125783e-17, 5.551115123125782e-17, 5.551115123125782e-17], "u_angle": [0.0, -2.0943951023931957, 2.0943951023931953], "u": [3.204937810639273e-13, 3.2049378106392727e-13, 3.2049378106392727e-13]},
        {"id": 2, "u_pu": [1.734723475976807e-18, 1.7347234759768069e-18, 1.7347234759768069e-18], "u_angle": [3.141592653589793, 1.0471975511965974, -1.047197551196598], "u": [1.0015430658247729e-14, 1.0015430658247727e-14, 1.0015430658247727e-14]},
        {"id": 3, "u_pu": [0.0, 0.0, 0.0], "u_angle": [0.0, 0.0, 0.0], "u": [0.0, 0.0, 0.0]}
      ],
    "transformer":
      [
        {"id": 6, "i_from": [1481.406760543816, 1481.406760543816, 1481.4067605438158], "i_from_angle": [-1.5542001689765805, 2.63459003580981, 0.5401949334166147], "i_to": [19258.287887069615, 19258.287887069615, 19258.287887069615], "i_to_angle": [2.1109912602115113, 0.01659615781831535, -2.07779894457488]}
      ],
    "line":
      [
        {"id": 7, "i_from": [2.0572311348636295e-12, 2.057231134863629e-12, 2.0572311348636295e-12], "i_from_angle": [-1.2608514700372928, 2.9279387347490977, 0.8335436323559025], "i_to": [2.057260860301402e-12, 2.057260860301402e-12, 2.057260860301402e-12], "i_to_angle": [1.8807365560105442, -0.2136585463826516, -2.308053648775847]},
        {"id": 8, "i_from": [1.246820550533671e-13, 1.246820550533671e-13, 1.246820550533671e-13], "i_from_angle": [1.8807376382462795, -0.2136574641469164, -2.3080525665401117], "i_to": [1.2468253449619547e-13, 1.2468253449619547e-13, 1.2468253449619544e-13], "i_to_angle": [-1.2608562468525695, 2.927933957933821, 0.8335388555406259]}
      ],
    "fault":
      [
        {"id": 10, "i": [19258.287887069615, 19258.28788706961, 19258.28788706961], "i_angle": [1.0637937090149137, -1.030601393378282, -3.1249964957714775]}
      ],
    "source":
      [
        {"id": 4, "i": [1283.8858591379758, 1283.8858591379758, 1283.8858591379756], "i_angle": [1.5873924846132126, -0.5070026177799833, -2.6013977201731784]}
      ]
  }
,
  {
    "node":
      [
        {"id": 0, "u_pu": [0.9679395426397449, 0.9679395426397449, 0.9679395426397448], "u_angle": [-0.013485381927856473, -2.1078804843210524, 2.0809097204653386], "u": [83826.023325351, 83826.023325351, 83826.023325351]},
        {"id": 1, "u_pu": [0.8198061923155318, 0.8198061923155316, 0.8198061923155318], "u_angle": [-0.6384960727054502, -2.732891175098646, 1.4558990296877452], "u": [4733.1532581669435, 4733.1532581669435, 4733.1532581669435]},
        {"id": 2, "u_pu": [0.9950942554812251, 0.9950942554812251, 0.995094255481225], "u_angle": [-0.5275334426370187, -2.6219285450302148, 1.5668616597561764], "u": [5745.179362711356, 5745.179362711356, 5745.179362711355]},
        {"id": 3, "u_pu": [0.9950980819404871, 0.995098081940487, 0.995098081940487], "u_angle": [-0.5275346741460744, -2.6219297765392704, 1.566860428247121], "u": [5745.201454784205, 5745.2014547842045, 5745.2014547842045]}
      ],
    "transformer":
      [
        {"id": 6, "i_from": [1739.3800463196294, 1739.380046319629, 1739.3800463196287], "i_from_angle": [-0.7151539667488142, -2.80954906914201, 1.379241135644381], "i_to": [22611.94060215518, 22611.94060215518, 22611.94060215518], "i_to_angle": [2.950037462439278, 0.855642360046082, -1.2387527423471134]}
      ],
    "line":
      [
        {"id": 7, "i_from": [7255.72919301419, 7255.729193014189, 7255.729193014189], "i_from_angle": [1.8195302543872696, -0.2748648480059265, -2.3692599503991216], "i_to": [7255.016604520471, 7255.016604520471, 7255.0166045204705], "i_to_angle": [-1.321955772515478, 2.8668344322709127, 0.7724393298777174]},
...