tests/data/short_circuit/three_phase/sc_output_batch.json
[
  {
    "node":
      [
        {"id": 0, "energized": 1, "u_pu": [1.078534271737589, 1.0785342717375888, 1.078534271737589], "u_angle": [0.001951240713254396, -2.0924438616799415, 2.0963463431064495], "u": [93403.8078176901, 93403.80781769009, 93403.8078176901]},
        {"id": 1, "energized": 1, "u_pu": [1.1102230246251565e-16, 1.1102230246251563e-16, 1.1102230246251565e-16], "u_angle": [1.5707963267948966, -0.5235987755982993, -2.6179938779914944], "u": [6.409875621278546e-13, 6.409875621278545e-13, 6.409875621278546e-13]},
        {"id": 2, "energized": 1, "u_pu": [3.3306690738754696e-16, 3.330669073875469e-16, 3.3306690738754696e-16], "u_angle": [0.0, -2.0943951023931957, 2.0943951023931953], "u": [1.922962686383564e-12, 1.922962686383564e-12, 1.922962686383564e-12]},
        {"id": 3, "energized": 1, "u_pu": [1.1102230246251565e-16, 1.1102230246251563e-16, 1.1102230246251565e-16], "u_angle": [0.0, -2.0943951023931957, 2.0943951023931953], "u": [6.409875621278546e-13, 6.409875621278545e-13, 6.409875621278546e-13]}
      ],
    "line":
      [
        {"id": 7, "energized": 1, "i_from": [1.2616984629541655e-11, 1.2616984629541652e-11, 1.2616984629541652e-11], "i_from_angle": [1.5589909593139073, -0.5354041430792887, -2.629799245472484], "i_to": [1.2616792086604098e-11, 1.2616792086604096e-11, 1.2616792086604098e-11], "i_to_angle": [-1.582606982207721, 2.6061832225786694, 0.5117881201854744]},
        {"id": 8, "energized": 1, "i_from": [1.5959272362499055e-11, 1.5959272362499052e-11, 1.595927236249905e-11], "i_from_angle": [-1.2608543995854342, 2.9279358052009563, 0.8335407028077612], "i_to": [1.5959395099863113e-11, 1.595939509986311e-11, 1.5959395099863113e-11], "i_to_angle": [1.8807357909862477, -0.21365931140694833, -2.3080544138001438]}
      ],
    "fault":
      [
        {"id": 10, "energized": 1, "i": [24907.682084717355, 24907.682084717355, 24907.682084717362], "i_angle": [1.0491487919098523, -1.0452463104833436, -3.139641412876539]}
      ],
    "shunt":
      [
        {"id": 9, "energized": 0, "i": [0.0, 0.0, 0.0], "i_angle": [0.0, 0.0, 0.0]}
      ],
    "source":
      [
        {"id": 4, "energized": 1, "i": [1660.512138981159, 1660.5121389811586, 1660.5121389811586], "i_angle": [-1.5688450860816423, 2.619945118704748, 0.5255500163115531]},
        {"id": 5, "energized": 0, "i": [0.0, 0.0, 0.0], "i_angle": [3.141592653589793, 3.141592653589793, 3.141592653589793]}
      ]
  }
,
  {
    "node":
      [
        {"id": 0, "energized": 1, "u_pu": [1.078534271737589, 1.0785342717375888, 1.078534271737589], "u_angle": [0.001951240713254396, -2.0924438616799415, 2.0963463431064495], "u": [93403.8078176901, 93403.80781769009, 93403.8078176901]},
        {"id": 1, "energized": 1, "u_pu": [1.1102230246251565e-16, 1.1102230246251563e-16, 1.1102230246251565e-16], "u_angle": [1.5707963267948966, -0.5235987755982993, -2.6179938779914944], "u": [6.409875621278546e-13, 6.409875621278545e-13, 6.409875621278546e-13]},
        {"id": 2, "energized": 1, "u_pu": [3.3306690738754696e-16, 3.330669073875469e-16, 3.3306690738754696e-16], "u_angle": [0.0, -2.0943951023931957, 2.0943951023931953], "u": [1.922962686383564e-12, 1.922962686383564e-12, 1.922962686383564e-12]},
        {"id": 3, "energized": 1, "u_pu": [1.1102230246251565e-16, 1.1102230246251563e-16, 1.1102230246251565e-16], "u_angle": [0.0, -2.0943951023931957, 2.0943951023931953], "u": [6.409875621278546e-13, 6.409875621278545e-13, 6.409875621278546e-13]}
      ],
    "line":
      [
        {"id": 7, "energized": 1, "i_from": [1.2616984629541655e-11, 1.2616984629541652e-11, 1.2616984629541652e-11], "i_from_angle": [1.5589909593139073, -0.5354041430792887, -2.629799245472484], "i_to": [1.2616792086604098e-11, 1.2616792086604096e-11, 1.2616792086604098e-11], "i_to_angle": [-1.582606982207721, 2.6061832225786694, 0.5117881201854744]},
        {"id": 8, "energized": 1, "i_from": [1.5959272362499055e-11, 1.5959272362499052e-11, 1.595927236249905e-11], "i_from_angle": [-1.2608543995854342, 2.9279358052009563, 0.8335407028077612], "i_to": [1.5959395099863113e-11, 1.595939509986311e-11, 1.5959395099863113e-11], "i_to_angle": [1.8807357909862477, -0.21365931140694833, -2.3080544138001438]}
      ],
    "fault":
      [
        {"id": 10, "energized": 1, "i": [24907.682084717355, 24907.682084717355, 24907.682084717362], "i_angle": [1.0491487919098523, -1.0452463104833436, -3.139641412876539]}
      ],
    "shunt":
      [
        {"id": 9, "energized": 1, "i": [0.0, 0.0, 0.0], "i_angle": [0.0, 0.0, 0.0]}
      ],
    "source":
      [
        {"id": 4, "energized": 1, "i": [1660.512138981159, 1660.5121389811586, 1660.5121389811586], "i_angle": [-1.5688450860816423, 2.619945118704748, 0.5255500163115531]},
        {"id": 5, "energized": 0, "i": [0.0, 0.0, 0.0], "i_angle": [3.141592653589793, 3.141592653589793, 3.141592653589793]}
      ]
  }
,
  {
    "node":
      [
        {"id": 0, "energized": 1, "u_pu": [1.0785342717375892, 1.078534271737589, 1.078534271737589], "u_angle": [0.0019512407132544012, -2.0924438616799415, 2.0963463431064495], "u": [93403.80781769012, 93403.8078176901, 93403.8078176901]},
        {"id": 1, "energized": 1, "u_pu": [1.1102230246251565e-16, 1.1102230246251563e-16, 1.1102230246251565e-16], "u_angle": [-1.5707963267948966, 2.617993877991494, 0.5235987755982987], "u": [6.409875621278546e-13, 6.409875621278545e-13, 6.409875621278546e-13]},
        {"id": 2, "energized": 1, "u_pu": [0.8422807941818562, 0.8422807941818561, 0.8422807941818563], "u_angle": [-0.5733611814959598, -2.667756283889156, 1.5210339208972354], "u": [4862.9104325414655, 4862.910432541464, 4862.9104325414655]},
        {"id": 3, "energized": 1, "u_pu": [0.8422840330239337, 0.8422840330239337, 0.8422840330239335], "u_angle": [-0.5733624130050156, -2.6677575153982116, 1.5210326893881796], "u": [4862.929132004919, 4862.929132004919, 4862.929132004916]}
      ],
    "line":
      [
        {"id": 7, "energized": 1, "i_from": [30269.292377255602, 30269.292377255595, 30269.292377255595], "i_from_angle": [1.307375225241264, -0.7870198771519319, -2.881414979545127], "i_to": [30268.82679844385, 30268.826798443843, 30268.826798443843], "i_to_angle": [-1.834212502255479, 2.3545777025309116, 0.2601826001377163]},
        {"id": 8, "energized": 1, "i_from": [0.48887401799628843, 0.48887401799628843, 0.48887401799628843], "i_from_angle": [0.9974345295310004, -1.0969605728621956, 3.091829631924196], "i_to": [1.3531440247604774e-11, 1.3531440247604771e-11, 1.3531440247604774e-11], "i_to_angle": [1.3258176636680326, -0.7685774387251635, -2.8629725411183586]}
      ],
    "fault":
      [
        {"id": 10, "energized": 1, "i": [54722.06131378445, 54722.06131378444, 54722.06131378444], "i_angle": [1.1908776028886958, -0.9035174995045, -2.997912601897695]}
      ],
    "shunt":
      [
        {"id": 9, "energized": 0, "i": [0.0, 0.0, 0.0], "i_angle": [0.0, 0.0, 0.0]}
      ],
    "source":
      [
        {"id": 4, "energized": 1, "i": [1660.512138981142, 1660.5121389811416, 1660.5121389811418], "i_angle": [-1.5688450860816434, 2.619945118704747, 0.5255500163115517]},
        {"id": 5, "energized": 1, "i": [30268.361219563285, 30268.361219563285, 30268.361219563285], "i_angle": [-1.8342075759919427, 2.354582628794448, 0.26018752640125253]}
      ]
  }
,
  {
    "node":
      [
        {"id": 0, "energized": 1, "u_pu": [1.0785342717375892, 1.078534271737589, 1.078534271737589], "u_angle": [0.0019512407132544012, -2.0924438616799415, 2.0963463431064495], "u": [93403.80781769012, 93403.8078176901, 93403.8078176901]},
        {"id": 1, "energized": 1, "u_pu": [1.1102230246251565e-16, 1.1102230246251563e-16, 1.1102230246251565e-16], "u_angle": [-1.5707963267948966, 2.617993877991494, 0.5235987755982987], "u": [6.409875621278546e-13, 6.409875621278545e-13, 6.409875621278546e-13]},
        {"id": 2, "energized": 1, "u_pu": [0.8422807941818562, 0.8422807941818561, 0.8422807941818563], "u_angle": [-0.5733611814959598, -2.667756283889156, 1.5210339208972354], "u": [4862.9104325414655, 4862.910432541464, 4862.9104325414655]},
        {"id": 3, "energized": 1, "u_pu": [0.8422840330239337, 0.8422840330239337, 0.8422840330239335], "u_angle": [-0.5733624130050156, -2.6677575153982116, 1.5210326893881796], "u": [4862.929132004919, 4862.929132004919, 4862.929132004916]}
      ],
    "line":
      [
        {"id": 7, "energized": 1, "i_from": [30269.292377255602, 30269.292377255595, 30269.292377255595], "i_from_angle": [1.307375225241264, -0.7870198771519319, -2.881414979545127], "i_to": [30268.82679844385, 30268.826798443843, 30268.826798443843], "i_to_angle": [-1.834212502255479, 2.3545777025309116, 0.2601826001377163]},
        {"id": 8, "energized": 1, "i_from": [0.48887401799628843, 0.48887401799628843, 0.48887401799628843], "i_from_angle": [0.9974345295310004, -1.0969605728621956, 3.091829631924196], "i_to": [1.3531440247604774e-11, 1.3531440247604771e-11, 1.3531440247604774e-11], "i_to_angle": [1.3258176636680326, -0.7685774387251635, -2.8629725411183586]}
      ],
    "fault":
      [
        {"id": 10, "energized": 1, "i": [54722.06131378445, 54722.06131378444, 54722.06131378444], "i_angle": [1.1908776028886958, -0.9035174995045, -2.997912601897695]}
      ],
    "shunt":
      [
        {"id": 9, "energized": 1, "i": [0.0, 0.0, 0.0], "i_angle": [0.0, 0.0, 0.0]}
      ],
    "source":
      [
        {"id": 4, "energized": 1, "i": [1660.512138981142, 1660.5121389811416, 1660.5121389811418], "i_angle": [-1.5688450860816434, 2.619945118704747, 0.5255500163115517]},
        {"id": 5, "energized": 1, "i": [30268.361219563285, 30268.361219563285, 30268.361219563285], "i_angle": [-1.8342075759919427, 2.354582628794448, 0.26018752640125253]}
      ]
  }
,
  {
    "node":
      [
        {"id": 0, "energized": 1, "u_pu": [1.0866200066852323, 1.0866200066852323, 1.0866200066852323], "u_angle": [-0.00025947161342547675, -2.094654574006621, 2.09413563077977], "u": [94104.05300498278, 94104.05300498278, 94104.05300498278]},
        {"id": 1, "energized": 1, "u_pu": [0.43001555148210374, 0.4300155514821037, 0.43001555148210363], "u_angle": [-0.7128060190804898, -2.807201121473686, 1.3815890833127056], "u": [2482.6959440391797, 2482.6959440391797, 2482.6959440391793]},
        {"id": 2, "energized": 1, "u_pu": [1.5700924586837752e-16, 1.5700924586837752e-16, 1.570092458683775e-16], "u_angle": [-0.7853981633974483, -2.8797932657906444, 1.308996938995747], "u": [9.06493303673679e-13, 9.06493303673679e-13, 9.064933036736789e-13]},
        {"id": 3, "energized": 1, "u_pu": [1.5700924586837752e-16, 1.5700924586837752e-16, 1.570092458683775e-16], "u_angle": [2.356194490192345, 0.261799387799149, -1.8325957145940464], "u": [9.06493303673679e-13, 9.06493303673679e-13, 9.064933036736789e-13]}
      ],
    "line":
      [
        {"id": 7, "energized": 1, "i_from": [15453.357524425304, 15453.357524425302, 15453.357524425302], "i_from_angle": [-1.973657339840009, 2.2151328649463817, 0.12073776255318623], "i_to": [15453.595219658146, 15453.595219658146, 15453.595219658146], "i_to_angle": [1.167930387656734, -0.9264647147364619, -3.020859817129657]},
        {"id": 8, "energized": 1, "i_from": [2.256990620905758e-11, 2.256990620905758e-11, 2.256990620905758e-11], "i_from_angle": [-2.046253794496674, 2.1425364102897166, 0.04814130789652149], "i_to": [2.256990620905758e-11, 2.256990620905758e-11, 2.256990620905758e-11], "i_to_angle": [1.0953388590931195, -0.9990562433000765, -3.0934513456932717]}
      ],
    "fault":
      [
        {"id": 10, "energized": 1, "i": [15453.59521965815, 15453.59521965815, 15453.59521965815], "i_angle": [1.1679303876567342, -0.9264647147364619, -3.020859817129657]}
      ],
    "shunt":
      [
        {"id": 9, "energized": 0, "i": [0.0, 0.0, 0.0], "i_angle": [0.0, 0.0, 0.0]}
      ],
    "source":
      [
        {"id": 4, "energized": 1, "i": [1030.2238349616941, 1030.2238349616941, 1030.2238349616941], "i_angle": [-1.4500585642417103, 2.7387316405446804, 0.644336538151485]},
        {"id": 5, "energized": 0, "i": [0.0, 0.0, 0.0], "i_angle": [3.141592653589793, 3.141592653589793, 3.141592653589793]}
      ]
  }
,
  {
    "node":
      [
        {"id": 0, "energized": 1, "u_pu": [1.0866200066852323, 1.0866200066852323, 1.0866200066852323], "u_angle": [-0.00025947161342547675, -2.094654574006621, 2.09413563077977], "u": [94104.05300498278, 94104.05300498278, 94104.05300498278]},
        {"id": 1, "energized": 1, "u_pu": [0.43001555148210374, 0.4300155514821037, 0.43001555148210363], "u_angle": [-0.7128060190804898, -2.807201121473686, 1.3815890833127056], "u": [2482.6959440391797, 2482.6959440391797, 2482.6959440391793]},
        {"id": 2, "energized": 1, "u_pu": [1.5700924586837752e-16, 1.5700924586837752e-16, 1.570092458683775e-16], "u_angle": [-0.7853981633974483, -2.8797932657906444, 1.308996938995747], "u": [9.06493303673679e-13, 9.06493303673679e-13, 9.064933036736789e-13]},
        {"id": 3, "energized": 1, "u_pu": [1.5700924586837752e-16, 1.5700924586837752e-16, 1.570092458683775e-16], "u_angle": [2.356194490192345, 0.261799387799149, -1.8325957145940464], "u": [9.06493303673679e-13, 9.06493303673679e-13, 9.064933036736789e-13]}
      ],
    "line":
      [
        {"id": 7, "energized": 1, "i_from": [15453.357524425304, 15453.357524425302, 15453.357524425302], "i_from_angle": [-1.973657339840009, 2.2151328649463817, 0.12073776255318623], "i_to": [15453.595219658146, 15453.595219658146, 15453.595219658146], "i_to_angle": [1.167930387656734, -0.9264647147364619, -3.020859817129657]},
        {"id": 8, "energized": 1, "i_from": [2.256990620905758e-11, 2.256990620905758e-11, 2.256990620905758e-11], "i_from_angle": [-2.046253794496674, 2.1425364102897166, 0.04814130789652149], "i_to": [2.256990620905758e-11, 2.256990620905758e-11, 2.256990620905758e-11], "i_to_angle": [1.0953388590931195, -0.9990562433000765, -3.0934513456932717]}
      ],
    "fault":
      [
        {"id": 10, "energized": 1, "i": [15453.59521965815, 15453.59521965815, 15453.59521965815], "i_angle": [1.1679303876567342, -0.9264647147364619, -3.020859817129657]}
      ],
    "shunt":
      [
        {"id": 9, "energized": 1, "i": [0.0, 0.0, 0.0], "i_angle": [0.0, 0.0, 0.0]}
      ],
    "source":
      [
        {"id": 4, "energized": 1, "i": [1030.2238349616941, 1030.2238349616941, 1030.2238349616941], "i_angle": [-1.4500585642417103, 2.7387316405446804, 0.644336538151485]},
        {"id": 5, "energized": 0, "i": [0.0, 0.0, 0.0], "i_angle": [3.141592653589793, 3.141592653589793, 3.141592653589793]}
      ]
  }
,
  {
    "node":
      [
        {"id": 0, "energized": 1, "u_pu": [1.0866200066852325, 1.0866200066852325, 1.0866200066852323], "u_angle": [-0.0002594716134254711, -2.0946545740066216, 2.09413563077977], "u": [94104.0530049828, 94104.0530049828, 94104.05300498278]},
        {"id": 1, "energized": 1, "u_pu": [0.4300155514821037, 0.4300155514821037, 0.43001555148210363], "u_angle": [-0.71280601908049, -2.807201121473686, 1.3815890833127054], "u": [2482.6959440391797, 2482.6959440391797, 2482.6959440391793]},
        {"id": 2, "energized": 1, "u_pu": [1.5700924586837752e-16, 1.5700924586837752e-16, 1.570092458683775e-16], "u_angle": [-0.7853981633974483, -2.8797932657906444, 1.308996938995747], "u": [9.06493303673679e-13, 9.06493303673679e-13, 9.064933036736789e-13]},
        {"id": 3, "energized": 1, "u_pu": [0.0, 0.0, 0.0], "u_angle": [0.0, 0.0, 0.0], "u": [0.0, 0.0, 0.0]}
      ],
    "line":
      [
        {"id": 7, "energized": 1, "i_from": [15453.357524425299, 15453.357524425299, 15453.357524425302], "i_from_angle": [-1.9736573398400092, 2.2151328649463813, 0.12073776255318597], "i_to": [15453.595219658142, 15453.595219658138, 15453.595219658142], "i_to_angle": [1.1679303876567337, -0.9264647147364621, -3.0208598171296575]},
        {"id": 8, "energized": 1, "i_from": [1.1284931407425321e-11, 1.1284931407425321e-11, 1.1284931407425321e-11], "i_from_angle": [-2.046253178740962, 2.1425370260454284, 0.0481419236522333], "i_to": [1.1284974801636538e-11, 1.1284974801636535e-11, 1.1284974801636535e-11], "i_to_angle": [1.0953382433397754, -0.9990568590534206, -3.0934519614466156]}
      ],
    "fault":
      [
        {"id": 10, "energized": 1, "i": [142467.59801421993, 142467.59801421993, 142467.5980142199], "i_angle": [1.1491508886893056, -0.9452442137038903, -3.0396393160970856]}
      ],
    "shunt":
      [
        {"id": 9, "energized": 0, "i": [0.0, 0.0, 0.0], "i_angle": [0.0, 0.0, 0.0]}
      ],
    "source":
      [
        {"id": 4, "energized": 1, "i": [1030.223834961677, 1030.223834961677, 1030.223834961677], "i_angle": [-1.4500585642417103, 2.73873164054468, 0.6443365381514848]},
        {"id": 5, "energized": 1, "i": [127017.05922171766, 127017.05922171763, 127017.05922171763], "i_angle": [-1.9947264499020332, 2.194063754884357, 0.09966865249116198]}
      ]
  }
,
  {
    "node":
      [
        {"id": 0, "energized": 1, "u_pu": [1.0866200066852325, 1.0866200066852325, 1.0866200066852323], "u_angle": [-0.0002594716134254711, -2.0946545740066216, 2.09413563077977], "u": [94104.0530049828, 94104.0530049828, 94104.05300498278]},
        {"id": 1, "energized": 1, "u_pu": [0.4300155514821037, 0.4300155514821037, 0.43001555148210363], "u_angle": [-0.71280601908049, -2.807201121473686, 1.3815890833127054], "u": [2482.6959440391797, 2482.6959440391797, 2482.6959440391793]},
        {"id": 2, "energized": 1, "u_pu": [1.5700924586837752e-16, 1.5700924586837752e-16, 1.570092458683775e-16], "u_angle": [-0.7853981633974483, -2.8797932657906444, 1.308996938995747], "u": [9.06493303673679e-13, 9.06493303673679e-13, 9.064933036736789e-13]},
        {"id": 3, "energized": 1, "u_pu": [0.0, 0.0, 0.0], "u_angle": [0.0, 0.0, 0.0], "u": [0.0, 0.0, 0.0]}
      ],
    "line":
      [
        {"id": 7, "energized": 1, "i_from": [15453.357524425299, 15453.357524425299, 15453.357524425302], "i_from_angle": [-1.9736573398400092, 2.2151328649463813, 0.12073776255318597], "i_to": [15453.595219658142, 15453.595219658138, 15453.595219658142], "i_to_angle": [1.1679303876567337, -0.9264647147364621, -3.0208598171296575]},
        {"id": 8, "energized": 1, "i_from": [1.1284931407425321e-11, 1.1284931407425321e-11, 1.1284931407425321e-11], "i_from_angle": [-2.046253178740962, 2.1425370260454284, 0.0481419236522333], "i_to": [1.1284974801636538e-11, 1.1284974801636535e-11, 1.1284974801636535e-11], "i_to_angle": [1.0953382433397754, -0.9990568590534206, -3.0934519614466156]}
      ],
    "fault":
      [
        {"id": 10, "energized": 1, "i": [142467.59801421993, 142467.59801421993, 142467.5980142199], "i_angle": [1.1491508886893056, -0.9452442137038903, -3.0396393160970856]}
      ],
    "shunt":
      [
        {"id": 9, "energized": 1, "i": [0.0, 0.0, 0.0], "i_angle": [0.0, 0.0, 0.0]}
      ],
    "source":
      [
        {"id": 4, "energized": 1, "i": [1030.223834961677, 1030.223834961677, 1030.223834961677], "i_angle": [-1.4500585642417103, 2.73873164054468, 0.6443365381514848]},
        {"id": 5, "energized": 1, "i": [127017.05922171766, 127017.05922171763, 127017.05922171763], "i_angle": [-1.9947264499020332, 2.194063754884357, 0.09966865249116198]}
      ]
  }
,
  {
    "node":
      [
        {"id": 0, "energized": 1, "u_pu": [1.0887930640152668, 1.0887930640152668, 1.0887930640152665], "u_angle": [-0.0005347322736086773, -2.0949298346668046, 2.093860370119587], "u": [94292.24529015175, 94292.24529015175, 94292.24529015174]},
        {"id": 1, "energized": 1, "u_pu": [0.5408852364823096, 0.5408852364823095, 0.5408852364823095], "u_angle": [-0.6819750953087972, -2.776370197701993, 1.412420007084398], "u": [3122.8023688375583, 3122.802368837558, 3122.802368837558]},
        {"id": 2, "energized": 1, "u_pu": [0.18029646541827912, 0.18029646541827912, 0.18029646541827912], "u_angle": [-0.6819775583363791, -2.776372660729575, 1.4124175440568163], "u": [1040.942128431815, 1040.942128431815, 1040.942128431815]},
        {"id": 3, "energized": 1, "u_pu": [1.1102230246251565e-16, 1.1102230246251563e-16, 1.1102230246251565e-16], "u_angle": [1.5707963267948966, -0.5235987755982993, -2.6179938779914944], "u": [6.409875621278546e-13, 6.409875621278545e-13, 6.409875621278546e-13]}
      ],
    "line":
      [
        {"id": 7, "energized": 1, "i_from": [12958.285633726162, 12958.285633726162, 12958.28563372616], "i_from_angle": [-1.9428227213801363, 2.2459674834062544, 0.15157238101305895], "i_to": [12958.684273613826, 12958.684273613824, 12958.684273613824], "i_to_angle": [1.1987600799098994, -0.8956350224832965, -2.990030124876492]},
        {"id": 8, "energized": 1, "i_from": [12958.68427361384, 12958.684273613837, 12958.684273613837], "i_from_angle": [-1.9428325736798933, 2.2459576311064975, 0.151562528713302], "i_to": [12958.734103946175, 12958.734103946177, 12958.734103946177], "i_to_angle": [1.1987588484008442, -0.8956362539923516, -2.990031356385547]}
      ],
    "fault":
      [
        {"id": 10, "energized": 1, "i": [12958.734103946166, 12958.734103946163, 12958.734103946163], "i_angle": [1.198758848400844, -0.8956362539923519, -2.9900313563855474]}
      ],
    "shunt":
      [
        {"id": 9, "energized": 0, "i": [0.0, 0.0, 0.0], "i_angle": [0.0, 0.0, 0.0]}
      ],
    "source":
      [
        {"id": 4, "energized": 1, "i": [863.8857089150762, 863.8857089150762, 863.8857089150761], "i_angle": [-1.419223945781837, 2.7695662590045536, 0.6751711566113583]},
        {"id": 5, "energized": 0, "i": [0.0, 0.0, 0.0], "i_angle": [3.141592653589793, 3.141592653589793, 3.141592653589793]}
      ]
  }
,
  {
    "node":
      [
        {"id": 0, "energized": 1, "u_pu": [1.0887930640152668, 1.0887930640152668, 1.0887930640152665], "u_angle": [-0.0005347322736086773, -2.0949298346668046, 2.093860370119587], "u": [94292.24529015175, 94292.24529015175, 94292.24529015174]},
        {"id": 1, "energized": 1, "u_pu": [0.5408852364823096, 0.5408852364823095, 0.5408852364823095], "u_angle": [-0.6819750953087972, -2.776370197701993, 1.412420007084398], "u": [3122.8023688375583, 3122.802368837558, 3122.802368837558]},
        {"id": 2, "energized": 1, "u_pu": [0.18029646541827912, 0.18029646541827912, 0.18029646541827912], "u_angle": [-0.6819775583363791, -2.776372660729575, 1.4124175440568163], "u": [1040.942128431815, 1040.942128431815, 1040.942128431815]},
        {"id": 3, "energized": 1, "u_pu": [1.1102230246251565e-16, 1.1102230246251563e-16, 1.1102230246251565e-16], "u_angle": [1.5707963267948966, -0.5235987755982993, -2.6179938779914944], "u": [6.409875621278546e-13, 6.409875621278545e-13, 6.409875621278546e-13]}
      ],
    "line":
      [
        {"id": 7, "energized": 1, "i_from": [12958.285633726162, 12958.285633726162, 12958.28563372616], "i_from_angle": [-1.9428227213801363, 2.2459674834062544, 0.15157238101305895], "i_to": [12958.684273613826, 12958.684273613824, 12958.684273613824], "i_to_angle": [1.1987600799098994, -0.8956350224832965, -2.990030124876492]},
        {"id": 8, "energized": 1, "i_from": [12958.68427361384, 12958.684273613837, 12958.684273613837], "i_from_angle": [-1.9428325736798933, 2.2459576311064975, 0.151562528713302], "i_to": [12958.734103946175, 12958.734103946177, 12958.734103946177], "i_to_angle": [1.1987588484008442, -0.8956362539923516, -2.990031356385547]}
      ],
    "fault":
      [
        {"id": 10, "energized": 1, "i": [12958.734103946166, 12958.734103946163, 12958.734103946163], "i_angle": [1.198758848400844, -0.8956362539923519, -2.9900313563855474]}
      ],
    "shunt":
      [
        {"id": 9, "energized": 1, "i": [0.0, 0.0, 0.0], "i_angle": [0.0, 0.0, 0.0]}
      ],
    "source":
      [
        {"id": 4, "energized": 1, "i": [863.8857089150762, 863.8857089150762, 863.8857089150761], "i_angle": [-1.419223945781837, 2.7695662590045536, 0.6751711566113583]},
        {"id": 5, "energized": 0, "i": [0.0, 0.0, 0.0], "i_angle": [3.141592653589793, 3.141592653589793, 3.141592653589793]}
      ]
  }
,
  {
    "node":
      [
        {"id": 0, "energized": 1, "u_pu": [1.0952578425080874, 1.0952578425080874, 1.0952578425080872], "u_angle": [-0.0006763212770033883, -2.0950714236701993, 2.0937187811161917], "u": [94852.11153061395, 94852.11153061395, 94852.11153061394]},
        {"id": 1, "energized": 1, "u_pu": [0.8651658119006278, 0.8651658119006277, 0.8651658119006277], "u_angle": [-0.5943825837107158, -2.688777686103912, 1.5000125186824795], "u": [4995.037143944886, 4995.037143944885, 4995.037143944885]},
        {"id": 2, "energized": 1, "u_pu": [0.7109490797042408, 0.7109490797042407, 0.7109490797042408], "u_angle": [-0.5977294562760967, -2.692124558669293, 1.4966656461170984], "u": [4104.6664254736015, 4104.6664254736015, 4104.6664254736015]},
        {"id": 3, "energized": 1, "u_pu": [0.0, 0.0, 0.0], "u_angle": [0.0, 0.0, 0.0], "u": [0.0, 0.0, 0.0]}
      ],
    "line":
      [
        {"id": 7, "energized": 1, "i_from": [5542.458937058467, 5542.458937058467, 5542.458937058468], "i_from_angle": [-1.8397822220339772, 2.3490079827524135, 0.25461288035921803], "i_to": [5543.325297963266, 5543.325297963266, 5543.325297963268], "i_to_angle": [1.3017574388078577, -0.7926376635853382, -2.8870327659785335]},
        {"id": 8, "energized": 1, "i_from": [51098.975440976836, 51098.97544097683, 51098.97544097683], "i_from_angle": [-1.8585844716196105, 2.33020573316678, 0.2358106307735847], "i_to": [51099.17193306466, 51099.17193306465, 51099.17193306465], "i_to_angle": [1.283006950461127, -0.8113881519320688, -2.9057832543252644]}
      ],
    "fault":
      [
        {"id": 10, "energized": 1, "i": [51099.17193306465, 51099.171933064645, 51099.17193306464], "i_angle": [1.283006950461127, -0.8113881519320688, -2.905783254325264]}
      ],
    "shunt":
      [
        {"id": 9, "energized": 0, "i": [0.0, 0.0, 0.0], "i_angle": [0.0, 0.0, 0.0]}
      ],
    "source":
      [
        {"id": 4, "energized": 1, "i": [369.49726247056327, 369.49726247056327, 369.4972624705632], "i_angle": [-1.316183446435678, 2.8726067583507127, 0.7782116559575174]},
        {"id": 5, "energized": 1, "i": [45556.74299286519, 45556.74299286519, 45556.74299286519], "i_angle": [-1.8608657416098184, 2.327924463176572, 0.2335293607833768]}
      ]
  }
,
  {
    "node":
      [
        {"id": 0, "energized": 1, "u_pu": [1.0952578425080874, 1.0952578425080874, 1.0952578425080872], "u_angle": [-0.0006763212770033883, -2.0950714236701993, 2.0937187811161917], "u": [94852.11153061395, 94852.11153061395, 94852.11153061394]},
        {"id": 1, "energized": 1, "u_pu": [0.8651658119006278, 0.8651658119006277, 0.8651658119006277], "u_angle": [-0.5943825837107158, -2.688777686103912, 1.5000125186824795], "u": [4995.037143944886, 4995.037143944885, 4995.037143944885]},
        {"id": 2, "energized": 1, "u_pu": [0.7109490797042408, 0.7109490797042407, 0.7109490797042408], "u_angle": [-0.5977294562760967, -2.692124558669293, 1.4966656461170984], "u": [4104.6664254736015, 4104.6664254736015, 4104.6664254736015]},
        {"id": 3, "energized": 1, "u_pu": [0.0, 0.0, 0.0], "u_angle": [0.0, 0.0, 0.0], "u": [0.0, 0.0, 0.0]}
      ],
    "line":
      [
        {"id": 7, "energized": 1, "i_from": [5542.458937058467, 5542.458937058467, 5542.458937058468], "i_from_angle": [-1.8397822220339772, 2.3490079827524135, 0.25461288035921803], "i_to": [5543.325297963266, 5543.325297963266, 5543.325297963268], "i_to_angle": [1.3017574388078577, -0.7926376635853382, -2.8870327659785335]},
        {"id": 8, "energized": 1, "i_from": [51098.975440976836, 51098.97544097683, 51098.97544097683], "i_from_angle": [-1.8585844716196105, 2.33020573316678, 0.2358106307735847], "i_to": [51099.17193306466, 51099.17193306465, 51099.17193306465], "i_to_angle": [1.283006950461127, -0.8113881519320688, -2.9057832543252644]}
      ],
    "fault":
      [
        {"id": 10, "energized": 1, "i": [51099.17193306465, 51099.171933064645, 51099.17193306464], "i_angle": [1.283006950461127, -0.8113881519320688, -2.905783254325264]}
      ],
    "shunt":
      [
        {"id": 9, "energized": 1, "i": [0.0, 0.0, 0.0], "i_angle": [0.0, 0.0, 0.0]}
      ],
    "source":
      [
        {"id": 4, "energized": 1, "i": [369.49726247056327, 369.49726247056327, 369.4972624705632], "i_angle": [-1.316183446435678, 2.8726067583507127, 0.7782116559575174]},
        {"id": 5, "energized": 1, "i": [45556.74299286519, 45556.74299286519, 45556.74299286519], "i_angle": [-1.8608657416098184, 2.327924463176572, 0.2335293607833768]}
      ]
  }
,
  {
    "node":
      [
        {"id": 0, "energized": 1, "u_pu": [1.0792977388458767, 1.0792977388458764, 1.0792977388458764], "u_angle": [0.0011536861123102853, -2.0932414162808857, 2.0955487885055057], "u": [93469.9260087632, 93469.92600876318, 93469.92600876318]},
        {"id": 1, "energized": 1, "u_pu": [0.05866286057473656, 0.058662860574736575, 0.05866286057473656], "u_angle": [-1.2694034472269717, 2.919386757559419, 0.8249916551662235], "u": [338.69018344257637, 338.6901834425765, 338.69018344257637]},
        {"id": 2, "energized": 1, "u_pu": [0.058664665243759954, 0.058664665243759954, 0.05866466524375996], "u_angle": [-1.2694132995835525, 2.919376905202838, 0.8249818028096427], "u": [338.70060270404093, 338.70060270404093, 338.700602704041]},
        {"id": 3, "energized": 1, "u_pu": [0.058664890828371966, 0.05866489082837196, 0.05866489082837196], "u_angle": [-1.2694145310926124, 2.919375673693778, 0.8249805713005829], "u": [338.7019051174056, 338.7019051174056, 338.7019051174056]}
      ],
    "line":
      [
        {"id": 7, "energized": 1, "i_from": [0.10214871323062463, 0.10214871323062462, 0.10214871323062462], "i_from_angle": [0.30138610614305517, -1.7930089962501408, 2.3957812085362504], "i_to": [0.03404996387617334, 0.03404996387617333, 0.03404996387617334], "i_to_angle": [-2.8402102417223714, 1.348579963064019, -0.7458151393291763]},
...