tests/data/short_circuit/three_phase/sym_sc_output_batch.json
[
  {
    "node":
      [
        {"u_pu": 0.8339083271798211, "u_angle": 0.01659615781831599, "u": 125086.24907697317},
        {"u_pu": 0.0, "u_angle": 0.0, "u": 0.0},
        {"u_pu": 0.9704435987128411, "u_angle": -0.5299029914948589, "u": 9704.43598712841},
        {"u_pu": 0.9704473303823548, "u_angle": -0.5299042230039145, "u": 9704.473303823548}
      ],
    "transformer":
      [
        {"i_from": 1481.406760543816, "i_from_angle": -1.5542001689765805, "i_to": 19258.28788706961, "i_to_angle": 2.1109912602115113}
      ],
    "line":
      [
        {"i_from": 34875.11674014596, "i_from_angle": 1.3508334152423649, "i_to": 34874.58031811108, "i_to_angle": -1.790754312254378},
        {"i_from": 0.5632618773187452, "i_from_angle": 1.0408927195645348, "i_to": 1.467690763929347e-11, "i_to_angle": -1.1071487177940904}
      ],
    "fault":
      [
        {"i": 53623.382809574345, "i_angle": 1.248979804773232}
      ],
    "shunt":
      [
        {"i": 0.0, "i_angle": 0.0}
      ],
    "source":
      [
        {"i": 1283.885859137976, "i_angle": 1.5873924846132124},
        {"i": 34874.04389599704, "i_angle": 1.3508432675989517}
      ]
  }
,
  {
    "node":
      [
        {"u_pu": 0.8339083271798211, "u_angle": 0.01659615781831599, "u": 125086.24907697317},
        {"u_pu": 0.0, "u_angle": 0.0, "u": 0.0},
        {"u_pu": 0.9704435987128411, "u_angle": -0.5299029914948589, "u": 9704.43598712841},
        {"u_pu": 0.9704473303823548, "u_angle": -0.5299042230039145, "u": 9704.473303823548}
      ],
    "transformer":
      [
        {"i_from": 1481.406760543816, "i_from_angle": -1.5542001689765805, "i_to": 19258.28788706961, "i_to_angle": 2.1109912602115113}
      ],
    "line":
      [
        {"i_from": 34875.11674014596, "i_from_angle": 1.3508334152423649, "i_to": 34874.58031811108, "i_to_angle": -1.790754312254378},
        {"i_from": 0.5632618773187452, "i_from_angle": 1.0408927195645348, "i_to": 1.467690763929347e-11, "i_to_angle": -1.1071487177940904}
      ],
    "fault":
      [
        {"i": 53623.382809574345, "i_angle": 1.248979804773232}
      ],
    "shunt":
      [
        {"i": 0.0, "i_angle": 0.0}
      ],
    "source":
      [
        {"i": 1283.885859137976, "i_angle": 1.5873924846132124},
        {"i": 34874.04389599704, "i_angle": 1.3508432675989517}
      ]
  }
,
  {
    "node":
      [
        {"u_pu": 0.8339083271798211, "u_angle": 0.01659615781831596, "u": 125086.24907697317},
        {"u_pu": 5.551115123125783e-17, "u_angle": 0.0, "u": 5.551115123125783e-13},
        {"u_pu": 2.4532694666933987e-18, "u_angle": 2.356194490192345, "u": 2.4532694666933988e-14},
        {"u_pu": 3.878959614448864e-18, "u_angle": 2.677945044588987, "u": 3.878959614448864e-14}
      ],
    "transformer":
      [
        {"i_from": 1481.406760543816, "i_from_angle": -1.5542001689765805, "i_to": 19258.287887069615, "i_to_angle": 2.1109912602115113}
      ],
    "line":
      [
        {"i_from": 2.0581751991989156e-12, "i_from_angle": -1.2911456859039065, "i_to": 2.058205477262113e-12, "i_to_angle": 1.8504432520335063},
        {"i_from": 1.2468286039364525e-13, "i_from_angle": -1.2608613236530277, "i_to": 1.246817291599104e-13, "i_to_angle": 1.8807427150960185}
      ],
    "fault":
      [
        {"i": 19258.287887069615, "i_angle": 1.0637937090149137}
      ],
    "shunt":
      [
        {"i": 0.0, "i_angle": 0.0}
      ],
    "source":
      [
        {"i": 1283.8858591379758, "i_angle": 1.5873924846132126},
        {"i": 34874.04389599704, "i_angle": 1.3508432675989517}
      ]
  }
,
  {
    "node":
      [
        {"u_pu": 0.8339083271798211, "u_angle": 0.01659615781831596, "u": 125086.24907697317},
        {"u_pu": 5.551115123125783e-17, "u_angle": 0.0, "u": 5.551115123125783e-13},
        {"u_pu": 2.4532694666933987e-18, "u_angle": 2.356194490192345, "u": 2.4532694666933988e-14},
        {"u_pu": 3.878959614448864e-18, "u_angle": 2.677945044588987, "u": 3.878959614448864e-14}
      ],
    "transformer":
      [
        {"i_from": 1481.406760543816, "i_from_angle": -1.5542001689765805, "i_to": 19258.287887069615, "i_to_angle": 2.1109912602115113}
      ],
    "line":
      [
        {"i_from": 2.0581751991989156e-12, "i_from_angle": -1.2911456859039065, "i_to": 2.058205477262113e-12, "i_to_angle": 1.8504432520335063},
        {"i_from": 1.2468286039364525e-13, "i_from_angle": -1.2608613236530277, "i_to": 1.246817291599104e-13, "i_to_angle": 1.8807427150960185}
      ],
    "fault":
      [
        {"i": 19258.287887069615, "i_angle": 1.0637937090149137}
      ],
    "shunt":
      [
        {"i": 0.0, "i_angle": 0.0}
      ],
    "source":
      [
        {"i": 1283.8858591379758, "i_angle": 1.5873924846132126},
        {"i": 34874.04389599704, "i_angle": 1.3508432675989517}
      ]
  }
,
  {
    "node":
      [
        {"u_pu": 0.8339083271798211, "u_angle": 0.01659615781831599, "u": 125086.24907697317},
        {"u_pu": 0.0, "u_angle": 0.0, "u": 0.0},
        {"u_pu": 0.9704435987128411, "u_angle": -0.5299029914948589, "u": 9704.43598712841},
        {"u_pu": 0.9704473303823548, "u_angle": -0.5299042230039145, "u": 9704.473303823548}
      ],
    "transformer":
      [
        {"i_from": 1481.406760543816, "i_from_angle": -1.5542001689765805, "i_to": 19258.28788706961, "i_to_angle": 2.1109912602115113}
      ],
    "line":
      [
        {"i_from": 34875.11674014596, "i_from_angle": 1.3508334152423649, "i_to": 34874.58031811108, "i_to_angle": -1.790754312254378},
        {"i_from": 0.5632618773187452, "i_from_angle": 1.0408927195645348, "i_to": 1.467690763929347e-11, "i_to_angle": -1.1071487177940904}
      ],
    "fault":
      [
        {"i": 53623.382809574345, "i_angle": 1.248979804773232}
      ],
    "shunt":
      [
        {"i": 0.0, "i_angle": 0.0}
      ],
    "source":
      [
        {"i": 1283.885859137976, "i_angle": 1.5873924846132124},
        {"i": 34874.04389599704, "i_angle": 1.3508432675989517}
      ]
  }
,
  {
    "node":
      [
        {"u_pu": 0.8339083271798211, "u_angle": 0.01659615781831599, "u": 125086.24907697317},
        {"u_pu": 0.0, "u_angle": 0.0, "u": 0.0},
        {"u_pu": 0.9704435987128411, "u_angle": -0.5299029914948589, "u": 9704.43598712841},
        {"u_pu": 0.9704473303823548, "u_angle": -0.5299042230039145, "u": 9704.473303823548}
      ],
    "transformer":
      [
        {"i_from": 1481.406760543816, "i_from_angle": -1.5542001689765805, "i_to": 19258.28788706961, "i_to_angle": 2.1109912602115113}
      ],
    "line":
      [
        {"i_from": 34875.11674014596, "i_from_angle": 1.3508334152423649, "i_to": 34874.58031811108, "i_to_angle": -1.790754312254378},
        {"i_from": 0.5632618773187452, "i_from_angle": 1.0408927195645348, "i_to": 1.467690763929347e-11, "i_to_angle": -1.1071487177940904}
      ],
    "fault":
      [
        {"i": 53623.382809574345, "i_angle": 1.248979804773232}
      ],
    "shunt":
      [
        {"i": 0.0, "i_angle": 0.0}
      ],
    "source":
      [
        {"i": 1283.885859137976, "i_angle": 1.5873924846132124},
        {"i": 34874.04389599704, "i_angle": 1.3508432675989517}
      ]
  }
,
  {
    "node":
      [
        {"u_pu": 0.8339083271798211, "u_angle": 0.01659615781831596, "u": 125086.24907697317},
        {"u_pu": 5.551115123125783e-17, "u_angle": 0.0, "u": 5.551115123125783e-13},
        {"u_pu": 2.4532694666933987e-18, "u_angle": 2.356194490192345, "u": 2.4532694666933988e-14},
        {"u_pu": 3.878959614448864e-18, "u_angle": 2.677945044588987, "u": 3.878959614448864e-14}
      ],
    "transformer":
      [
        {"i_from": 1481.406760543816, "i_from_angle": -1.5542001689765805, "i_to": 19258.287887069615, "i_to_angle": 2.1109912602115113}
      ],
    "line":
      [
        {"i_from": 2.0581751991989156e-12, "i_from_angle": -1.2911456859039065, "i_to": 2.058205477262113e-12, "i_to_angle": 1.8504432520335063},
        {"i_from": 1.2468286039364525e-13, "i_from_angle": -1.2608613236530277, "i_to": 1.246817291599104e-13, "i_to_angle": 1.8807427150960185}
      ],
    "fault":
      [
        {"i": 19258.287887069615, "i_angle": 1.0637937090149137}
      ],
    "shunt":
      [
        {"i": 0.0, "i_angle": 0.0}
      ],
    "source":
      [
        {"i": 1283.8858591379758, "i_angle": 1.5873924846132126},
        {"i": 34874.04389599704, "i_angle": 1.3508432675989517}
      ]
  }
,
  {
    "node":
      [
        {"u_pu": 0.8339083271798211, "u_angle": 0.01659615781831596, "u": 125086.24907697317},
        {"u_pu": 5.551115123125783e-17, "u_angle": 0.0, "u": 5.551115123125783e-13},
        {"u_pu": 2.4532694666933987e-18, "u_angle": 2.356194490192345, "u": 2.4532694666933988e-14},
        {"u_pu": 3.878959614448864e-18, "u_angle": 2.677945044588987, "u": 3.878959614448864e-14}
      ],
    "transformer":
      [
        {"i_from": 1481.406760543816, "i_from_angle": -1.5542001689765805, "i_to": 19258.287887069615, "i_to_angle": 2.1109912602115113}
      ],
    "line":
      [
        {"i_from": 2.0581751991989156e-12, "i_from_angle": -1.2911456859039065, "i_to": 2.058205477262113e-12, "i_to_angle": 1.8504432520335063},
        {"i_from": 1.2468286039364525e-13, "i_from_angle": -1.2608613236530277, "i_to": 1.246817291599104e-13, "i_to_angle": 1.8807427150960185}
      ],
    "fault":
      [
        {"i": 19258.287887069615, "i_angle": 1.0637937090149137}
      ],
    "shunt":
      [
        {"i": 0.0, "i_angle": 0.0}
      ],
    "source":
      [
        {"i": 1283.8858591379758, "i_angle": 1.5873924846132126},
        {"i": 34874.04389599704, "i_angle": 1.3508432675989517}
      ]
  }
,
  {
    "node":
      [
        {"u_pu": 0.8339083271798211, "u_angle": 0.01659615781831599, "u": 125086.24907697317},
        {"u_pu": 0.0, "u_angle": 0.0, "u": 0.0},
        {"u_pu": 0.9704435987128411, "u_angle": -0.5299029914948589, "u": 9704.43598712841},
        {"u_pu": 0.9704473303823548, "u_angle": -0.5299042230039145, "u": 9704.473303823548}
      ],
    "transformer":
      [
        {"i_from": 1481.406760543816, "i_from_angle": -1.5542001689765805, "i_to": 19258.28788706961, "i_to_angle": 2.1109912602115113}
      ],
    "line":
      [
        {"i_from": 34875.11674014596, "i_from_angle": 1.3508334152423649, "i_to": 34874.58031811108, "i_to_angle": -1.790754312254378},
        {"i_from": 0.5632618773187452, "i_from_angle": 1.0408927195645348, "i_to": 1.467690763929347e-11, "i_to_angle": -1.1071487177940904}
      ],
    "fault":
      [
        {"i": 53623.382809574345, "i_angle": 1.248979804773232}
      ],
    "shunt":
      [
        {"i": 0.0, "i_angle": 0.0}
      ],
    "source":
      [
        {"i": 1283.885859137976, "i_angle": 1.5873924846132124},
        {"i": 34874.04389599704, "i_angle": 1.3508432675989517}
      ]
  }
,
  {
    "node":
      [
        {"u_pu": 0.8339083271798211, "u_angle": 0.01659615781831599, "u": 125086.24907697317},
        {"u_pu": 0.0, "u_angle": 0.0, "u": 0.0},
        {"u_pu": 0.9704435987128411, "u_angle": -0.5299029914948589, "u": 9704.43598712841},
        {"u_pu": 0.9704473303823548, "u_angle": -0.5299042230039145, "u": 9704.473303823548}
      ],
    "transformer":
      [
        {"i_from": 1481.406760543816, "i_from_angle": -1.5542001689765805, "i_to": 19258.28788706961, "i_to_angle": 2.1109912602115113}
      ],
    "line":
      [
        {"i_from": 34875.11674014596, "i_from_angle": 1.3508334152423649, "i_to": 34874.58031811108, "i_to_angle": -1.790754312254378},
        {"i_from": 0.5632618773187452, "i_from_angle": 1.0408927195645348, "i_to": 1.467690763929347e-11, "i_to_angle": -1.1071487177940904}
      ],
    "fault":
      [
        {"i": 53623.382809574345, "i_angle": 1.248979804773232}
      ],
    "shunt":
      [
        {"i": 0.0, "i_angle": 0.0}
      ],
    "source":
      [
        {"i": 1283.885859137976, "i_angle": 1.5873924846132124},
        {"i": 34874.04389599704, "i_angle": 1.3508432675989517}
      ]
  }
,
  {
    "node":
      [
        {"u_pu": 0.8339083271798211, "u_angle": 0.01659615781831596, "u": 125086.24907697317},
        {"u_pu": 5.551115123125783e-17, "u_angle": 0.0, "u": 5.551115123125783e-13},
        {"u_pu": 2.4532694666933987e-18, "u_angle": 2.356194490192345, "u": 2.4532694666933988e-14},
        {"u_pu": 3.878959614448864e-18, "u_angle": 2.677945044588987, "u": 3.878959614448864e-14}
      ],
    "transformer":
      [
        {"i_from": 1481.406760543816, "i_from_angle": -1.5542001689765805, "i_to": 19258.287887069615, "i_to_angle": 2.1109912602115113}
      ],
    "line":
      [
        {"i_from": 2.0581751991989156e-12, "i_from_angle": -1.2911456859039065, "i_to": 2.058205477262113e-12, "i_to_angle": 1.8504432520335063},
        {"i_from": 1.2468286039364525e-13, "i_from_angle": -1.2608613236530277, "i_to": 1.246817291599104e-13, "i_to_angle": 1.8807427150960185}
      ],
    "fault":
      [
        {"i": 19258.287887069615, "i_angle": 1.0637937090149137}
      ],
    "shunt":
      [
        {"i": 0.0, "i_angle": 0.0}
      ],
    "source":
      [
        {"i": 1283.8858591379758, "i_angle": 1.5873924846132126},
        {"i": 34874.04389599704, "i_angle": 1.3508432675989517}
      ]
  }
,
  {
    "node":
      [
        {"u_pu": 0.8339083271798211, "u_angle": 0.01659615781831596, "u": 125086.24907697317},
        {"u_pu": 5.551115123125783e-17, "u_angle": 0.0, "u": 5.551115123125783e-13},
        {"u_pu": 2.4532694666933987e-18, "u_angle": 2.356194490192345, "u": 2.4532694666933988e-14},
        {"u_pu": 3.878959614448864e-18, "u_angle": 2.677945044588987, "u": 3.878959614448864e-14}
      ],
    "transformer":
      [
        {"i_from": 1481.406760543816, "i_from_angle": -1.5542001689765805, "i_to": 19258.287887069615, "i_to_angle": 2.1109912602115113}
      ],
    "line":
      [
        {"i_from": 2.0581751991989156e-12, "i_from_angle": -1.2911456859039065, "i_to": 2.058205477262113e-12, "i_to_angle": 1.8504432520335063},
        {"i_from": 1.2468286039364525e-13, "i_from_angle": -1.2608613236530277, "i_to": 1.246817291599104e-13, "i_to_angle": 1.8807427150960185}
      ],
    "fault":
      [
        {"i": 19258.287887069615, "i_angle": 1.0637937090149137}
      ],
    "shunt":
      [
        {"i": 0.0, "i_angle": 0.0}
      ],
    "source":
      [
        {"i": 1283.8858591379758, "i_angle": 1.5873924846132126},
        {"i": 34874.04389599704, "i_angle": 1.3508432675989517}
      ]
  }
,
  {
    "node":
      [
        {"u_pu": 0.9679395426397449, "u_angle": -0.01348538192785647, "u": 145190.93139596173},
        {"u_pu": 0.8198061923155318, "u_angle": -0.6384960727054502, "u": 8198.061923155317},
        {"u_pu": 0.9950942554812251, "u_angle": -0.5275334426370187, "u": 9950.94255481225},
        {"u_pu": 0.9950980819404871, "u_angle": -0.5275346741460744, "u": 9950.980819404871}
      ],
    "transformer":
      [
        {"i_from": 1739.3800463196294, "i_from_angle": -0.7151539667488142, "i_to": 22611.94060215518, "i_to_angle": 2.950037462439278}
      ],
    "line":
      [
        {"i_from": 7255.72919301419, "i_from_angle": 1.8195302543872696, "i_to": 7255.016604520471, "i_to_angle": -1.321955772515478},
        {"i_from": 0.5775695354044301, "i_from_angle": 1.043262268414614, "i_to": 6.563712636189232e-12, "i_to_angle": 0.0}
      ],
    "fault":
      [
        {"i": 11156.149217483491, "i_angle": 1.7176984174868948}
      ],
    "shunt":
      [
        {"i": 0.0, "i_angle": 0.0}
      ],
    "source":
      [
        {"i": 267.09913964455234, "i_angle": 2.0561426726469474},
        {"i": 7254.604543902413, "i_angle": 1.8196926665423963}
      ]
  }
,
  {
    "node":
      [
        {"u_pu": 0.9679395426397449, "u_angle": -0.01348538192785647, "u": 145190.93139596173},
        {"u_pu": 0.8198061923155318, "u_angle": -0.6384960727054502, "u": 8198.061923155317},
        {"u_pu": 0.9950942554812251, "u_angle": -0.5275334426370187, "u": 9950.94255481225},
        {"u_pu": 0.9950980819404871, "u_angle": -0.5275346741460744, "u": 9950.980819404871}
      ],
    "transformer":
      [
        {"i_from": 1739.3800463196294, "i_from_angle": -0.7151539667488142, "i_to": 22611.94060215518, "i_to_angle": 2.950037462439278}
      ],
    "line":
      [
        {"i_from": 7255.72919301419, "i_from_angle": 1.8195302543872696, "i_to": 7255.016604520471, "i_to_angle": -1.321955772515478},
        {"i_from": 0.5775695354044301, "i_from_angle": 1.043262268414614, "i_to": 6.563712636189232e-12, "i_to_angle": 0.0}
      ],
    "fault":
      [
        {"i": 11156.149217483491, "i_angle": 1.7176984174868948}
      ],
    "shunt":
      [
        {"i": 0.0, "i_angle": 0.0}
      ],
    "source":
      [
        {"i": 267.09913964455234, "i_angle": 2.0561426726469474},
        {"i": 7254.604543902413, "i_angle": 1.8196926665423963}
      ]
  }
,
  {
    "node":
      [
        {"u_pu": 0.8793491776387335, "u_angle": -0.005138730647351844, "u": 131902.37664581003},
        {"u_pu": 0.29442498469895007, "u_angle": -0.8236821684637683, "u": 2944.249846989501},
        {"u_pu": 0.008892440395848416, "u_angle": -0.6197149569091631, "u": 88.92440395848416},
        {"u_pu": 0.008892474590157873, "u_angle": -0.6197161884182191, "u": 88.92474590157873}
      ],
    "transformer":
      [
        {"i_from": 1530.8239830240348, "i_from_angle": -1.2366891920050944, "i_to": 19900.711779312453, "i_to_angle": 2.4285022371829976}
      ],
    "line":
      [
        {"i_from": 10267.932369598451, "i_from_angle": -2.090837555067912, "i_to": 10268.100576883768, "i_to_angle": 1.050750072393349},
        {"i_from": 0.005161322799069913, "i_from_angle": 0.9510807540977002, "i_to": 1.8488908177493115e-13, "i_to_angle": 2.5535900500422257}
      ],
    "fault":
      [
        {"i": 4006.6165557731806, "i_angle": 1.5325123217285765}
      ],
    "shunt":
      [
        {"i": 0.0, "i_angle": 0.0}
      ],
    "source":
      [
        {"i": 929.510949573045, "i_angle": 1.7078967460573578},
        {"i": 7254.604543902413, "i_angle": 1.8196926665423963}
      ]
  }
,
  {
    "node":
      [
        {"u_pu": 0.8793491776387335, "u_angle": -0.005138730647351844, "u": 131902.37664581003},
        {"u_pu": 0.29442498469895007, "u_angle": -0.8236821684637683, "u": 2944.249846989501},
        {"u_pu": 0.008892440395848416, "u_angle": -0.6197149569091631, "u": 88.92440395848416},
        {"u_pu": 0.008892474590157873, "u_angle": -0.6197161884182191, "u": 88.92474590157873}
      ],
    "transformer":
      [
        {"i_from": 1530.8239830240348, "i_from_angle": -1.2366891920050944, "i_to": 19900.711779312453, "i_to_angle": 2.4285022371829976}
      ],
    "line":
      [
        {"i_from": 10267.932369598451, "i_from_angle": -2.090837555067912, "i_to": 10268.100576883768, "i_to_angle": 1.050750072393349},
        {"i_from": 0.005161322799069913, "i_from_angle": 0.9510807540977002, "i_to": 1.8488908177493115e-13, "i_to_angle": 2.5535900500422257}
      ],
    "fault":
      [
        {"i": 4006.6165557731806, "i_angle": 1.5325123217285765}
      ],
    "shunt":
      [
        {"i": 0.0, "i_angle": 0.0}
      ],
    "source":
      [
        {"i": 929.510949573045, "i_angle": 1.7078967460573578},
        {"i": 7254.604543902413, "i_angle": 1.8196926665423963}
      ]
  }
,
  {
    "node":
      [
        {"u_pu": 0.9679395426397449, "u_angle": -0.01348538192785647, "u": 145190.93139596173},
        {"u_pu": 0.8198061923155318, "u_angle": -0.6384960727054502, "u": 8198.061923155317},
        {"u_pu": 0.9950942554812251, "u_angle": -0.5275334426370187, "u": 9950.94255481225},
        {"u_pu": 0.9950980819404871, "u_angle": -0.5275346741460744, "u": 9950.980819404871}
      ],
    "transformer":
      [
        {"i_from": 1739.3800463196294, "i_from_angle": -0.7151539667488142, "i_to": 22611.94060215518, "i_to_angle": 2.950037462439278}
      ],
    "line":
      [
        {"i_from": 7255.72919301419, "i_from_angle": 1.8195302543872696, "i_to": 7255.016604520471, "i_to_angle": -1.321955772515478},
        {"i_from": 0.5775695354044301, "i_from_angle": 1.043262268414614, "i_to": 6.563712636189232e-12, "i_to_angle": 0.0}
      ],
    "fault":
      [
        {"i": 11156.149217483491, "i_angle": 1.7176984174868948}
      ],
    "shunt":
      [
        {"i": 0.0, "i_angle": 0.0}
      ],
    "source":
      [
        {"i": 267.09913964455234, "i_angle": 2.0561426726469474},
        {"i": 7254.604543902413, "i_angle": 1.8196926665423963}
      ]
  }
,
  {
    "node":
      [
        {"u_pu": 0.9679395426397449, "u_angle": -0.01348538192785647, "u": 145190.93139596173},
        {"u_pu": 0.8198061923155318, "u_angle": -0.6384960727054502, "u": 8198.061923155317},
        {"u_pu": 0.9950942554812251, "u_angle": -0.5275334426370187, "u": 9950.94255481225},
        {"u_pu": 0.9950980819404871, "u_angle": -0.5275346741460744, "u": 9950.980819404871}
      ],
    "transformer":
      [
        {"i_from": 1739.3800463196294, "i_from_angle": -0.7151539667488142, "i_to": 22611.94060215518, "i_to_angle": 2.950037462439278}
      ],
    "line":
      [
        {"i_from": 7255.72919301419, "i_from_angle": 1.8195302543872696, "i_to": 7255.016604520471, "i_to_angle": -1.321955772515478},
        {"i_from": 0.5775695354044301, "i_from_angle": 1.043262268414614, "i_to": 6.563712636189232e-12, "i_to_angle": 0.0}
      ],
    "fault":
      [
        {"i": 11156.149217483491, "i_angle": 1.7176984174868948}
      ],
    "shunt":
      [
        {"i": 0.0, "i_angle": 0.0}
      ],
    "source":
      [
        {"i": 267.09913964455234, "i_angle": 2.0561426726469474},
        {"i": 7254.604543902413, "i_angle": 1.8196926665423963}
      ]
  }
,
  {
    "node":
      [
        {"u_pu": 0.8793491776387335, "u_angle": -0.005138730647351844, "u": 131902.37664581003},
        {"u_pu": 0.29442498469895007, "u_angle": -0.8236821684637683, "u": 2944.249846989501},
        {"u_pu": 0.008892440395848416, "u_angle": -0.6197149569091631, "u": 88.92440395848416},
        {"u_pu": 0.008892474590157873, "u_angle": -0.6197161884182191, "u": 88.92474590157873}
      ],
    "transformer":
      [
        {"i_from": 1530.8239830240348, "i_from_angle": -1.2366891920050944, "i_to": 19900.711779312453, "i_to_angle": 2.4285022371829976}
      ],
    "line":
      [
        {"i_from": 10267.932369598451, "i_from_angle": -2.090837555067912, "i_to": 10268.100576883768, "i_to_angle": 1.050750072393349},
        {"i_from": 0.005161322799069913, "i_from_angle": 0.9510807540977002, "i_to": 1.8488908177493115e-13, "i_to_angle": 2.5535900500422257}
      ],
    "fault":
      [
        {"i": 4006.6165557731806, "i_angle": 1.5325123217285765}
      ],
    "shunt":
      [
        {"i": 0.0, "i_angle": 0.0}
      ],
    "source":
      [
        {"i": 929.510949573045, "i_angle": 1.7078967460573578},
        {"i": 7254.604543902413, "i_angle": 1.8196926665423963}
      ]
  }
,
  {
    "node":
      [
        {"u_pu": 0.8793491776387335, "u_angle": -0.005138730647351844, "u": 131902.37664581003},
        {"u_pu": 0.29442498469895007, "u_angle": -0.8236821684637683, "u": 2944.249846989501},
        {"u_pu": 0.008892440395848416, "u_angle": -0.6197149569091631, "u": 88.92440395848416},
        {"u_pu": 0.008892474590157873, "u_angle": -0.6197161884182191, "u": 88.92474590157873}
      ],
    "transformer":
      [
        {"i_from": 1530.8239830240348, "i_from_angle": -1.2366891920050944, "i_to": 19900.711779312453, "i_to_angle": 2.4285022371829976}
      ],
    "line":
      [
        {"i_from": 10267.932369598451, "i_from_angle": -2.090837555067912, "i_to": 10268.100576883768, "i_to_angle": 1.050750072393349},
        {"i_from": 0.005161322799069913, "i_from_angle": 0.9510807540977002, "i_to": 1.8488908177493115e-13, "i_to_angle": 2.5535900500422257}
      ],
    "fault":
      [
        {"i": 4006.6165557731806, "i_angle": 1.5325123217285765}
      ],
    "shunt":
      [
        {"i": 0.0, "i_angle": 0.0}
      ],
    "source":
      [
        {"i": 929.510949573045, "i_angle": 1.7078967460573578},
        {"i": 7254.604543902413, "i_angle": 1.8196926665423963}
      ]
  }
,
  {
    "node":
      [
        {"u_pu": 0.9679395426397449, "u_angle": -0.01348538192785647, "u": 145190.93139596173},
        {"u_pu": 0.8198061923155318, "u_angle": -0.6384960727054502, "u": 8198.061923155317},
        {"u_pu": 0.9950942554812251, "u_angle": -0.5275334426370187, "u": 9950.94255481225},
        {"u_pu": 0.9950980819404871, "u_angle": -0.5275346741460744, "u": 9950.980819404871}
      ],
    "transformer":
      [
        {"i_from": 1739.3800463196294, "i_from_angle": -0.7151539667488142, "i_to": 22611.94060215518, "i_to_angle": 2.950037462439278}
      ],
    "line":
      [
        {"i_from": 7255.72919301419, "i_from_angle": 1.8195302543872696, "i_to": 7255.016604520471, "i_to_angle": -1.321955772515478},
        {"i_from": 0.5775695354044301, "i_from_angle": 1.043262268414614, "i_to": 6.563712636189232e-12, "i_to_angle": 0.0}
      ],
    "fault":
      [
        {"i": 11156.149217483491, "i_angle": 1.7176984174868948}
      ],
    "shunt":
      [
        {"i": 0.0, "i_angle": 0.0}
      ],
    "source":
      [
        {"i": 267.09913964455234, "i_angle": 2.0561426726469474},
        {"i": 7254.604543902413, "i_angle": 1.8196926665423963}
      ]
  }
,
  {
    "node":
      [
        {"u_pu": 0.9679395426397449, "u_angle": -0.01348538192785647, "u": 145190.93139596173},
        {"u_pu": 0.8198061923155318, "u_angle": -0.6384960727054502, "u": 8198.061923155317},
        {"u_pu": 0.9950942554812251, "u_angle": -0.5275334426370187, "u": 9950.94255481225},
        {"u_pu": 0.9950980819404871, "u_angle": -0.5275346741460744, "u": 9950.980819404871}
      ],
    "transformer":
      [
        {"i_from": 1739.3800463196294, "i_from_angle": -0.7151539667488142, "i_to": 22611.94060215518, "i_to_angle": 2.950037462439278}
      ],
    "line":
      [
        {"i_from": 7255.72919301419, "i_from_angle": 1.8195302543872696, "i_to": 7255.016604520471, "i_to_angle": -1.321955772515478},
        {"i_from": 0.5775695354044301, "i_from_angle": 1.043262268414614, "i_to": 6.563712636189232e-12, "i_to_angle": 0.0}
      ],
    "fault":
      [
        {"i": 11156.149217483491, "i_angle": 1.7176984174868948}
      ],
    "shunt":
      [
        {"i": 0.0, "i_angle": 0.0}
      ],
    "source":
      [
        {"i": 267.09913964455234, "i_angle": 2.0561426726469474},
        {"i": 7254.604543902413, "i_angle": 1.8196926665423963}
      ]
  }
,
  {
    "node":
      [
        {"u_pu": 0.8793491776387335, "u_angle": -0.005138730647351844, "u": 131902.37664581003},
        {"u_pu": 0.29442498469895007, "u_angle": -0.8236821684637683, "u": 2944.249846989501},
        {"u_pu": 0.008892440395848416, "u_angle": -0.6197149569091631, "u": 88.92440395848416},
        {"u_pu": 0.008892474590157873, "u_angle": -0.6197161884182191, "u": 88.92474590157873}
      ],
    "transformer":
      [
        {"i_from": 1530.8239830240348, "i_from_angle": -1.2366891920050944, "i_to": 19900.711779312453, "i_to_angle": 2.4285022371829976}
      ],
    "line":
      [
        {"i_from": 10267.932369598451, "i_from_angle": -2.090837555067912, "i_to": 10268.100576883768, "i_to_angle": 1.050750072393349},
        {"i_from": 0.005161322799069913, "i_from_angle": 0.9510807540977002, "i_to": 1.8488908177493115e-13, "i_to_angle": 2.5535900500422257}
      ],
    "fault":
      [
        {"i": 4006.6165557731806, "i_angle": 1.5325123217285765}
      ],
    "shunt":
      [
        {"i": 0.0, "i_angle": 0.0}
      ],
    "source":
      [
        {"i": 929.510949573045, "i_angle": 1.7078967460573578},
        {"i": 7254.604543902413, "i_angle": 1.8196926665423963}
      ]
  }
,
  {
    "node":
      [
        {"u_pu": 0.8793491776387335, "u_angle": -0.005138730647351844, "u": 131902.37664581003},
        {"u_pu": 0.29442498469895007, "u_angle": -0.8236821684637683, "u": 2944.249846989501},
        {"u_pu": 0.008892440395848416, "u_angle": -0.6197149569091631, "u": 88.92440395848416},
        {"u_pu": 0.008892474590157873, "u_angle": -0.6197161884182191, "u": 88.92474590157873}
      ],
    "transformer":
      [
        {"i_from": 1530.8239830240348, "i_from_angle": -1.2366891920050944, "i_to": 19900.711779312453, "i_to_angle": 2.4285022371829976}
      ],
    "line":
      [
        {"i_from": 10267.932369598451, "i_from_angle": -2.090837555067912, "i_to": 10268.100576883768, "i_to_angle": 1.050750072393349},
        {"i_from": 0.005161322799069913, "i_from_angle": 0.9510807540977002, "i_to": 1.8488908177493115e-13, "i_to_angle": 2.5535900500422257}
      ],
    "fault":
      [
        {"i": 4006.6165557731806, "i_angle": 1.5325123217285765}
      ],
    "shunt":
      [
        {"i": 0.0, "i_angle": 0.0}
      ],
    "source":
      [
        {"i": 929.510949573045, "i_angle": 1.7078967460573578},
        {"i": 7254.604543902413, "i_angle": 1.8196926665423963}
      ]
  }

]